<?xml version="1.0" encoding="UTF-8"?>

<!-- generated on Thu Oct 31 16:38:27 2019 by Eclipse SUMO netconvert Version 1.2.0
<configuration xmlns:xsi="http://www.w3.org/2001/XMLSchema-instance" xsi:noNamespaceSchemaLocation="http://sumo.dlr.de/xsd/netconvertConfiguration.xsd">

    <input>
        <sumo-net-file value="/Users/zhuliwen/Downloads/福田区和宝安区路网/BaoAn/BaoAn.net.xml"/>
    </input>

    <output>
        <plain-output-prefix value="BaoAn"/>
        <output.street-names value="true"/>
    </output>

    <projection>
        <proj.plain-geo value="true"/>
    </projection>

    <processing>
        <geometry.max-grade.fix value="false"/>
        <offset.disable-normalization value="true"/>
        <lefthand value="false"/>
    </processing>

    <junctions>
        <no-turnarounds value="true"/>
        <junctions.corner-detail value="5"/>
        <junctions.limit-turn-speed value="5.5"/>
        <rectangular-lane-cut value="false"/>
    </junctions>

    <pedestrian>
        <walkingareas value="false"/>
    </pedestrian>

</configuration>
-->

<connections version="1.1" xmlns:xsi="http://www.w3.org/2001/XMLSchema-instance" xsi:noNamespaceSchemaLocation="http://sumo.dlr.de/xsd/connections_file.xsd">
    <connection from="-101315839#0" to="259208985#1" fromLane="0" toLane="0"/>
    <connection from="-101315839#0" to="-259208985#0" fromLane="0" toLane="0"/>
    <connection from="-101315839#0" to="-259208985#0" fromLane="1" toLane="1"/>
    <connection from="-101315839#0" to="-259208985#0" fromLane="2" toLane="2"/>
    <connection from="-101315839#0" to="101315839#0" fromLane="2" toLane="2"/>

    <connection from="-101315839#1" to="-560466322" fromLane="0" toLane="0"/>
    <connection from="-101315839#1" to="-101315839#0" fromLane="0" toLane="0"/>
    <connection from="-101315839#1" to="-101315839#0" fromLane="1" toLane="1"/>
    <connection from="-101315839#1" to="-101315839#0" fromLane="2" toLane="2"/>
    <connection from="-101315839#1" to="101315839#1" fromLane="2" toLane="2"/>

    <connection from="-101315926#0" to="-247187938#0" fromLane="0" toLane="0"/>
    <connection from="-101315926#0" to="247187938#1" fromLane="1" toLane="1"/>
    <connection from="-101315926#0" to="247187938#1" fromLane="2" toLane="2"/>
    <connection from="-101315926#0" to="101315926#0" fromLane="2" toLane="2"/>

    <connection from="-101315926#1" to="101317448#2" fromLane="0" toLane="0"/>
    <connection from="-101315926#1" to="-101315926#0" fromLane="0" toLane="0"/>
    <connection from="-101315926#1" to="-101315926#0" fromLane="1" toLane="1"/>
    <connection from="-101315926#1" to="-101315926#0" fromLane="2" toLane="2"/>
    <connection from="-101315926#1" to="-101317448#1" fromLane="2" toLane="2"/>
    <connection from="-101315926#1" to="101315926#1" fromLane="2" toLane="2"/>

    <connection from="-101315926#2" to="101317132#2" fromLane="0" toLane="0"/>
    <connection from="-101315926#2" to="-101315926#1" fromLane="0" toLane="0"/>
    <connection from="-101315926#2" to="-101315926#1" fromLane="1" toLane="1"/>
    <connection from="-101315926#2" to="-101315926#1" fromLane="2" toLane="2"/>
    <connection from="-101315926#2" to="-101317132#1" fromLane="2" toLane="2"/>
    <connection from="-101315926#2" to="101315926#2" fromLane="2" toLane="2"/>

    <connection from="-101315960" to="101315960" fromLane="2" toLane="2"/>

    <connection from="-101316032#0" to="-239061381#0" fromLane="0" toLane="0"/>
    <connection from="-101316032#0" to="239061381#1" fromLane="1" toLane="1"/>
    <connection from="-101316032#0" to="239061381#1" fromLane="2" toLane="2"/>
    <connection from="-101316032#0" to="101316032#0" fromLane="2" toLane="2"/>

    <connection from="-101316032#1" to="-101316032#0" fromLane="0" toLane="0"/>
    <connection from="-101316032#1" to="-101316032#0" fromLane="1" toLane="1"/>
    <connection from="-101316032#1" to="-101316032#0" fromLane="2" toLane="2"/>
    <connection from="-101316032#1" to="-101316415#1" fromLane="2" toLane="1"/>
    <connection from="-101316032#1" to="-101316415#1" fromLane="2" toLane="2"/>
    <connection from="-101316032#1" to="101316032#1" fromLane="2" toLane="2"/>

    <connection from="-101316032#2" to="-101316032#1" fromLane="0" toLane="0"/>
    <connection from="-101316032#2" to="-101316032#1" fromLane="1" toLane="1"/>
    <connection from="-101316032#2" to="-101316032#1" fromLane="2" toLane="2"/>
    <connection from="-101316032#2" to="-101317007#1" fromLane="2" toLane="1"/>
    <connection from="-101316032#2" to="-101317007#1" fromLane="2" toLane="2"/>
    <connection from="-101316032#2" to="101316032#2" fromLane="2" toLane="2"/>

    <connection from="-101316049#0" to="517082045#3" fromLane="0" toLane="0"/>
    <connection from="-101316049#0" to="517082045#3" fromLane="1" toLane="1"/>
    <connection from="-101316049#0" to="517082045#3" fromLane="2" toLane="2"/>
    <connection from="-101316049#0" to="101316049#0" fromLane="2" toLane="2"/>

    <connection from="-101316049#1" to="-101316049#0" fromLane="0" toLane="0"/>
    <connection from="-101316049#1" to="-101316049#0" fromLane="1" toLane="1"/>
    <connection from="-101316049#1" to="-101316049#0" fromLane="2" toLane="2"/>
    <connection from="-101316049#1" to="263638688#0" fromLane="2" toLane="1"/>
    <connection from="-101316049#1" to="263638688#0" fromLane="2" toLane="2"/>
    <connection from="-101316049#1" to="101316049#1" fromLane="2" toLane="2"/>

    <connection from="-101316049#10" to="-263666376#3" fromLane="0" toLane="0"/>
    <connection from="-101316049#10" to="-101316049#9" fromLane="0" toLane="0"/>
    <connection from="-101316049#10" to="-101316049#9" fromLane="1" toLane="1"/>
    <connection from="-101316049#10" to="-101316049#9" fromLane="2" toLane="2"/>
    <connection from="-101316049#10" to="263666376#4" fromLane="2" toLane="2"/>
    <connection from="-101316049#10" to="101316049#10" fromLane="2" toLane="2"/>

    <connection from="-101316049#11" to="263217874#1" fromLane="0" toLane="0"/>
    <connection from="-101316049#11" to="-101316049#10" fromLane="0" toLane="0"/>
    <connection from="-101316049#11" to="-101316049#10" fromLane="1" toLane="1"/>
    <connection from="-101316049#11" to="-101316049#10" fromLane="2" toLane="2"/>
    <connection from="-101316049#11" to="-263217874#0" fromLane="2" toLane="2"/>
    <connection from="-101316049#11" to="101316049#11" fromLane="2" toLane="2"/>

    <connection from="-101316049#2" to="-101316049#1" fromLane="0" toLane="0"/>
    <connection from="-101316049#2" to="-101316049#1" fromLane="1" toLane="1"/>
    <connection from="-101316049#2" to="-101316049#1" fromLane="2" toLane="2"/>
    <connection from="-101316049#2" to="592262383" fromLane="2" toLane="2"/>
    <connection from="-101316049#2" to="101316049#2" fromLane="2" toLane="2"/>

    <connection from="-101316049#4" to="636231328#18" fromLane="0" toLane="0"/>
    <connection from="-101316049#4" to="-101316049#2" fromLane="0" toLane="0"/>
    <connection from="-101316049#4" to="-101316049#2" fromLane="1" toLane="1"/>
    <connection from="-101316049#4" to="-101316049#2" fromLane="2" toLane="2"/>
    <connection from="-101316049#4" to="636231327#4" fromLane="2" toLane="2"/>
    <connection from="-101316049#4" to="101316049#4" fromLane="2" toLane="2"/>

    <connection from="-101316049#5" to="592262385" fromLane="0" toLane="0"/>
    <connection from="-101316049#5" to="-101316049#4" fromLane="0" toLane="0"/>
    <connection from="-101316049#5" to="-101316049#4" fromLane="1" toLane="1"/>
    <connection from="-101316049#5" to="-101316049#4" fromLane="2" toLane="2"/>
    <connection from="-101316049#5" to="101316049#5" fromLane="2" toLane="2"/>

    <connection from="-101316049#6" to="-101316049#5" fromLane="0" toLane="0"/>
    <connection from="-101316049#6" to="-101316049#5" fromLane="1" toLane="1"/>
    <connection from="-101316049#6" to="-101316049#5" fromLane="2" toLane="2"/>
    <connection from="-101316049#6" to="263217064" fromLane="2" toLane="1"/>
    <connection from="-101316049#6" to="263217064" fromLane="2" toLane="2"/>
    <connection from="-101316049#6" to="101316049#6" fromLane="2" toLane="2"/>

    <connection from="-101316049#7" to="-263217872" fromLane="0" toLane="0"/>
    <connection from="-101316049#7" to="-101316049#6" fromLane="0" toLane="0"/>
    <connection from="-101316049#7" to="-101316049#6" fromLane="1" toLane="1"/>
    <connection from="-101316049#7" to="-101316049#6" fromLane="2" toLane="2"/>
    <connection from="-101316049#7" to="101316049#7" fromLane="2" toLane="2"/>

    <connection from="-101316049#8" to="-101316049#7" fromLane="0" toLane="0"/>
    <connection from="-101316049#8" to="-101316049#7" fromLane="1" toLane="1"/>
    <connection from="-101316049#8" to="-101316049#7" fromLane="2" toLane="2"/>
    <connection from="-101316049#8" to="-263217065#1" fromLane="2" toLane="1"/>
    <connection from="-101316049#8" to="-263217065#1" fromLane="2" toLane="2"/>
    <connection from="-101316049#8" to="101316049#8" fromLane="2" toLane="2"/>

    <connection from="-101316049#9" to="-101316049#8" fromLane="0" toLane="0"/>
    <connection from="-101316049#9" to="-101316049#8" fromLane="1" toLane="1"/>
    <connection from="-101316049#9" to="-101316049#8" fromLane="2" toLane="2"/>
    <connection from="-101316049#9" to="263217055#0" fromLane="2" toLane="1"/>
    <connection from="-101316049#9" to="263217055#0" fromLane="2" toLane="2"/>
    <connection from="-101316049#9" to="101316049#9" fromLane="2" toLane="2"/>

    <connection from="-101316143#0" to="239301824#0" fromLane="0" toLane="0"/>
    <connection from="-101316143#0" to="-101316712#1" fromLane="0" toLane="0"/>
    <connection from="-101316143#0" to="-101316712#1" fromLane="1" toLane="1"/>
    <connection from="-101316143#0" to="-101316712#1" fromLane="2" toLane="2"/>
    <connection from="-101316143#0" to="101316712#2" fromLane="2" toLane="2"/>

    <connection from="-101316143#1" to="-101316143#0" fromLane="0" toLane="0"/>
    <connection from="-101316143#1" to="-101316143#0" fromLane="1" toLane="1"/>
    <connection from="-101316143#1" to="-101316143#0" fromLane="2" toLane="2"/>
    <connection from="-101316143#1" to="101316143#1" fromLane="2" toLane="2"/>

    <connection from="-101316143#2" to="-101316143#1" fromLane="0" toLane="0"/>
    <connection from="-101316143#2" to="-101316143#1" fromLane="1" toLane="1"/>
    <connection from="-101316143#2" to="-101316143#1" fromLane="2" toLane="2"/>
    <connection from="-101316143#2" to="101316143#2" fromLane="2" toLane="2"/>

    <connection from="-101316143#3" to="-101316143#2" fromLane="0" toLane="0"/>
    <connection from="-101316143#3" to="-101316143#2" fromLane="1" toLane="1"/>
    <connection from="-101316143#3" to="-101316143#2" fromLane="2" toLane="2"/>
    <connection from="-101316143#3" to="101316143#3" fromLane="2" toLane="2"/>

    <connection from="-101316143#4" to="-101316143#3" fromLane="0" toLane="0"/>
    <connection from="-101316143#4" to="-101316143#3" fromLane="1" toLane="1"/>
    <connection from="-101316143#4" to="-101316143#3" fromLane="2" toLane="2"/>
    <connection from="-101316143#4" to="101316143#4" fromLane="2" toLane="2"/>

    <connection from="-101316143#5" to="-101316143#4" fromLane="0" toLane="0"/>
    <connection from="-101316143#5" to="-101316143#4" fromLane="1" toLane="1"/>
    <connection from="-101316143#5" to="-101316143#4" fromLane="2" toLane="2"/>
    <connection from="-101316143#5" to="101316143#5" fromLane="2" toLane="2"/>

    <connection from="-101316143#6" to="-101316143#5" fromLane="0" toLane="0"/>
    <connection from="-101316143#6" to="-101316143#5" fromLane="1" toLane="1"/>
    <connection from="-101316143#6" to="-101316143#5" fromLane="2" toLane="2"/>
    <connection from="-101316143#6" to="101316143#6" fromLane="2" toLane="2"/>

    <connection from="-101316143#7" to="-101316143#6" fromLane="0" toLane="0"/>
    <connection from="-101316143#7" to="-101316143#6" fromLane="1" toLane="1"/>
    <connection from="-101316143#7" to="-101316143#6" fromLane="2" toLane="2"/>
    <connection from="-101316143#7" to="101316143#7" fromLane="2" toLane="2"/>

    <connection from="-101316143#8" to="-101316143#7" fromLane="0" toLane="0"/>
    <connection from="-101316143#8" to="-101316143#7" fromLane="1" toLane="1"/>
    <connection from="-101316143#8" to="-101316143#7" fromLane="2" toLane="2"/>
    <connection from="-101316143#8" to="101316712#0" fromLane="2" toLane="1"/>
    <connection from="-101316143#8" to="101316712#0" fromLane="2" toLane="2"/>
    <connection from="-101316143#8" to="101316143#8" fromLane="2" toLane="2"/>

    <connection from="-101316215#0" to="581926227#1" fromLane="0" toLane="0"/>
    <connection from="-101316215#0" to="-101316215#10" fromLane="0" toLane="0"/>
    <connection from="-101316215#0" to="-101316215#10" fromLane="1" toLane="1"/>
    <connection from="-101316215#0" to="-101316215#10" fromLane="2" toLane="2"/>
    <connection from="-101316215#0" to="-581926227#0" fromLane="2" toLane="2"/>
    <connection from="-101316215#0" to="101316215#0" fromLane="2" toLane="2"/>

    <connection from="-101316215#1" to="-101316540#6" fromLane="0" toLane="0"/>
    <connection from="-101316215#1" to="-101316215#0" fromLane="0" toLane="0"/>
    <connection from="-101316215#1" to="-101316215#0" fromLane="1" toLane="1"/>
    <connection from="-101316215#1" to="-101316215#0" fromLane="2" toLane="2"/>
    <connection from="-101316215#1" to="101316215#1" fromLane="2" toLane="2"/>

    <connection from="-101316215#10" to="-101316215#9" fromLane="0" toLane="0"/>
    <connection from="-101316215#10" to="-101316215#9" fromLane="1" toLane="1"/>
    <connection from="-101316215#10" to="-101316215#9" fromLane="2" toLane="2"/>
    <connection from="-101316215#10" to="101316215#10" fromLane="2" toLane="2"/>

    <connection from="-101316215#2" to="-101316845" fromLane="0" toLane="0"/>
    <connection from="-101316215#2" to="-101316215#1" fromLane="0" toLane="0"/>
    <connection from="-101316215#2" to="-101316215#1" fromLane="1" toLane="1"/>
    <connection from="-101316215#2" to="-101316215#1" fromLane="2" toLane="2"/>
    <connection from="-101316215#2" to="101316215#2" fromLane="2" toLane="2"/>

    <connection from="-101316215#3" to="-101316215#2" fromLane="0" toLane="0"/>
    <connection from="-101316215#3" to="-101316215#2" fromLane="1" toLane="1"/>
    <connection from="-101316215#3" to="-101316215#2" fromLane="2" toLane="2"/>
    <connection from="-101316215#3" to="263505461#0" fromLane="2" toLane="1"/>
    <connection from="-101316215#3" to="263505461#0" fromLane="2" toLane="2"/>
    <connection from="-101316215#3" to="101316215#3" fromLane="2" toLane="2"/>

    <connection from="-101316215#4" to="-101316215#3" fromLane="0" toLane="0"/>
    <connection from="-101316215#4" to="-101316215#3" fromLane="1" toLane="1"/>
    <connection from="-101316215#4" to="-101316215#3" fromLane="2" toLane="2"/>
    <connection from="-101316215#4" to="101316215#4" fromLane="2" toLane="2"/>

    <connection from="-101316215#5" to="-585746665" fromLane="0" toLane="0"/>
    <connection from="-101316215#5" to="-101316215#4" fromLane="0" toLane="0"/>
    <connection from="-101316215#5" to="-101316215#4" fromLane="1" toLane="1"/>
    <connection from="-101316215#5" to="-101316215#4" fromLane="2" toLane="2"/>
    <connection from="-101316215#5" to="101316215#5" fromLane="2" toLane="2"/>

    <connection from="-101316215#6" to="101316540#0" fromLane="0" toLane="0"/>
    <connection from="-101316215#6" to="-101316215#5" fromLane="0" toLane="0"/>
    <connection from="-101316215#6" to="-101316215#5" fromLane="1" toLane="1"/>
    <connection from="-101316215#6" to="-101316215#5" fromLane="2" toLane="2"/>
    <connection from="-101316215#6" to="101316215#6" fromLane="2" toLane="2"/>

    <connection from="-101316215#7" to="-101316215#6" fromLane="0" toLane="0"/>
    <connection from="-101316215#7" to="-101316215#6" fromLane="1" toLane="1"/>
    <connection from="-101316215#7" to="-101316215#6" fromLane="2" toLane="2"/>
    <connection from="-101316215#7" to="620571169#0" fromLane="2" toLane="1"/>
    <connection from="-101316215#7" to="620571169#0" fromLane="2" toLane="2"/>
    <connection from="-101316215#7" to="101316215#7" fromLane="2" toLane="2"/>

    <connection from="-101316215#8" to="-101316215#7" fromLane="0" toLane="0"/>
    <connection from="-101316215#8" to="-101316215#7" fromLane="1" toLane="1"/>
    <connection from="-101316215#8" to="-101316215#7" fromLane="2" toLane="2"/>
    <connection from="-101316215#8" to="101316215#8" fromLane="2" toLane="2"/>

    <connection from="-101316215#9" to="-101316215#8" fromLane="0" toLane="0"/>
    <connection from="-101316215#9" to="-101316215#8" fromLane="1" toLane="1"/>
    <connection from="-101316215#9" to="-101316215#8" fromLane="2" toLane="2"/>
    <connection from="-101316215#9" to="101316215#9" fromLane="2" toLane="2"/>

    <connection from="-101316313#0" to="-239061381#5" fromLane="0" toLane="0"/>
    <connection from="-101316313#0" to="239061381#6" fromLane="1" toLane="1"/>
    <connection from="-101316313#0" to="239061381#6" fromLane="2" toLane="2"/>
    <connection from="-101316313#0" to="101316313#0" fromLane="2" toLane="2"/>

    <connection from="-101316313#1" to="101317308#0" fromLane="0" toLane="0"/>
    <connection from="-101316313#1" to="-101316313#0" fromLane="0" toLane="0"/>
    <connection from="-101316313#1" to="-101316313#0" fromLane="1" toLane="1"/>
    <connection from="-101316313#1" to="-101316313#0" fromLane="2" toLane="2"/>
    <connection from="-101316313#1" to="101316313#1" fromLane="2" toLane="2"/>

    <connection from="-101316315" to="101317238#1" fromLane="0" toLane="0"/>
    <connection from="-101316315" to="-101317238#0" fromLane="1" toLane="1"/>
    <connection from="-101316315" to="-101317238#0" fromLane="2" toLane="2"/>
    <connection from="-101316315" to="101316315" fromLane="2" toLane="2"/>

    <connection from="-101316336#0" to="239028318#5" fromLane="0" toLane="0"/>
    <connection from="-101316336#0" to="239028318#5" fromLane="1" toLane="1"/>
    <connection from="-101316336#0" to="239028318#5" fromLane="2" toLane="2"/>
    <connection from="-101316336#0" to="101316336#0" fromLane="2" toLane="2"/>

    <connection from="-101316415#0" to="-101316913#0" fromLane="0" toLane="0"/>
    <connection from="-101316415#0" to="101316913#1" fromLane="1" toLane="1"/>
    <connection from="-101316415#0" to="101316913#1" fromLane="2" toLane="2"/>
    <connection from="-101316415#0" to="101316415#0" fromLane="2" toLane="2"/>

    <connection from="-101316415#1" to="-101317790#0" fromLane="0" toLane="0"/>
    <connection from="-101316415#1" to="-101316415#0" fromLane="0" toLane="0"/>
    <connection from="-101316415#1" to="-101316415#0" fromLane="1" toLane="1"/>
    <connection from="-101316415#1" to="-101316415#0" fromLane="2" toLane="2"/>
    <connection from="-101316415#1" to="101317790#1" fromLane="2" toLane="2"/>
    <connection from="-101316415#1" to="101316415#1" fromLane="2" toLane="2"/>

    <connection from="-101316540#0" to="-101316215#5" fromLane="0" toLane="0"/>
    <connection from="-101316540#0" to="101316215#6" fromLane="0" toLane="0"/>
    <connection from="-101316540#0" to="101316215#6" fromLane="1" toLane="1"/>
    <connection from="-101316540#0" to="101316215#6" fromLane="2" toLane="2"/>
    <connection from="-101316540#0" to="101316540#0" fromLane="2" toLane="2"/>

    <connection from="-101316540#1" to="585746665" fromLane="0" toLane="0"/>
    <connection from="-101316540#1" to="-101316540#0" fromLane="0" toLane="0"/>
    <connection from="-101316540#1" to="-101316540#0" fromLane="1" toLane="1"/>
    <connection from="-101316540#1" to="-101316540#0" fromLane="2" toLane="2"/>
    <connection from="-101316540#1" to="101316540#1" fromLane="2" toLane="2"/>

    <connection from="-101316540#2" to="-101316540#1" fromLane="0" toLane="0"/>
    <connection from="-101316540#2" to="-101316540#1" fromLane="1" toLane="1"/>
    <connection from="-101316540#2" to="-101316540#1" fromLane="2" toLane="2"/>
    <connection from="-101316540#2" to="101316540#2" fromLane="2" toLane="2"/>

    <connection from="-101316540#3" to="-101316540#2" fromLane="0" toLane="0"/>
    <connection from="-101316540#3" to="-101316540#2" fromLane="1" toLane="1"/>
    <connection from="-101316540#3" to="-101316540#2" fromLane="2" toLane="2"/>
    <connection from="-101316540#3" to="101316540#3" fromLane="2" toLane="2"/>

    <connection from="-101316540#4" to="-101316540#3" fromLane="0" toLane="0"/>
    <connection from="-101316540#4" to="-101316540#3" fromLane="1" toLane="1"/>
    <connection from="-101316540#4" to="-101316540#3" fromLane="2" toLane="2"/>
    <connection from="-101316540#4" to="-101317726#3" fromLane="2" toLane="1"/>
    <connection from="-101316540#4" to="-101317726#3" fromLane="2" toLane="2"/>
    <connection from="-101316540#4" to="101316540#4" fromLane="2" toLane="2"/>

    <connection from="-101316540#5" to="101316845" fromLane="0" toLane="0"/>
    <connection from="-101316540#5" to="101316845" fromLane="1" toLane="1"/>
    <connection from="-101316540#5" to="101316845" fromLane="2" toLane="2"/>
    <connection from="-101316540#5" to="-101316540#4" fromLane="2" toLane="1"/>
    <connection from="-101316540#5" to="-101316540#4" fromLane="2" toLane="2"/>
    <connection from="-101316540#5" to="101316540#5" fromLane="2" toLane="2"/>

    <connection from="-101316540#6" to="-101316540#5" fromLane="0" toLane="0"/>
    <connection from="-101316540#6" to="-101316540#5" fromLane="1" toLane="1"/>
    <connection from="-101316540#6" to="-101316540#5" fromLane="2" toLane="2"/>
    <connection from="-101316540#6" to="101317726#0" fromLane="2" toLane="1"/>
    <connection from="-101316540#6" to="101317726#0" fromLane="2" toLane="2"/>
    <connection from="-101316540#6" to="101316540#6" fromLane="2" toLane="2"/>

    <connection from="-101316553#0" to="101317885#3" fromLane="0" toLane="0"/>
    <connection from="-101316553#0" to="101317885#3" fromLane="1" toLane="1"/>
    <connection from="-101316553#0" to="101317885#3" fromLane="2" toLane="2"/>
    <connection from="-101316553#0" to="101316553#0" fromLane="2" toLane="2"/>

    <connection from="-101316553#1" to="-263638708#0" fromLane="0" toLane="0"/>
    <connection from="-101316553#1" to="-101316553#0" fromLane="0" toLane="0"/>
    <connection from="-101316553#1" to="-101316553#0" fromLane="1" toLane="1"/>
    <connection from="-101316553#1" to="-101316553#0" fromLane="2" toLane="2"/>
    <connection from="-101316553#1" to="263638708#1" fromLane="2" toLane="2"/>
    <connection from="-101316553#1" to="101316553#1" fromLane="2" toLane="2"/>

    <connection from="-101316553#2" to="-101316553#1" fromLane="0" toLane="0"/>
    <connection from="-101316553#2" to="-101316553#1" fromLane="1" toLane="1"/>
    <connection from="-101316553#2" to="-101316553#1" fromLane="2" toLane="2"/>
    <connection from="-101316553#2" to="-101316315" fromLane="2" toLane="1"/>
    <connection from="-101316553#2" to="-101316315" fromLane="2" toLane="2"/>
    <connection from="-101316553#2" to="101316553#2" fromLane="2" toLane="2"/>

    <connection from="-101316553#3" to="101316787" fromLane="0" toLane="0"/>
    <connection from="-101316553#3" to="-101316553#2" fromLane="0" toLane="0"/>
    <connection from="-101316553#3" to="-101316553#2" fromLane="1" toLane="1"/>
    <connection from="-101316553#3" to="-101316553#2" fromLane="2" toLane="2"/>
    <connection from="-101316553#3" to="101316553#3" fromLane="2" toLane="2"/>

    <connection from="-101316572#0" to="101316572#0" fromLane="2" toLane="2"/>

    <connection from="-101316572#1" to="-101316749#2" fromLane="0" toLane="0"/>
    <connection from="-101316572#1" to="-101316572#0" fromLane="0" toLane="0"/>
    <connection from="-101316572#1" to="-101316572#0" fromLane="1" toLane="1"/>
    <connection from="-101316572#1" to="-101316572#0" fromLane="2" toLane="2"/>
    <connection from="-101316572#1" to="101316749#3" fromLane="2" toLane="2"/>
    <connection from="-101316572#1" to="101316572#1" fromLane="2" toLane="2"/>

    <connection from="-101316572#2" to="-101317132#0" fromLane="0" toLane="0"/>
    <connection from="-101316572#2" to="-101316572#1" fromLane="0" toLane="0"/>
    <connection from="-101316572#2" to="-101316572#1" fromLane="1" toLane="1"/>
    <connection from="-101316572#2" to="-101316572#1" fromLane="2" toLane="2"/>
    <connection from="-101316572#2" to="101317132#1" fromLane="2" toLane="2"/>
    <connection from="-101316572#2" to="101316572#2" fromLane="2" toLane="2"/>

    <connection from="-101316572#3" to="-101317448#0" fromLane="0" toLane="0"/>
    <connection from="-101316572#3" to="-101316572#2" fromLane="0" toLane="0"/>
    <connection from="-101316572#3" to="-101316572#2" fromLane="1" toLane="1"/>
    <connection from="-101316572#3" to="-101316572#2" fromLane="2" toLane="2"/>
    <connection from="-101316572#3" to="101317448#1" fromLane="2" toLane="2"/>
    <connection from="-101316572#3" to="101316572#3" fromLane="2" toLane="2"/>

    <connection from="-101316572#4" to="247187938#2" fromLane="0" toLane="0"/>
    <connection from="-101316572#4" to="-101316572#3" fromLane="0" toLane="0"/>
    <connection from="-101316572#4" to="-101316572#3" fromLane="1" toLane="1"/>
    <connection from="-101316572#4" to="-101316572#3" fromLane="2" toLane="2"/>
    <connection from="-101316572#4" to="-247187938#1" fromLane="2" toLane="2"/>
    <connection from="-101316572#4" to="101316572#4" fromLane="2" toLane="2"/>

    <connection from="-101316572#5" to="-101316572#4" fromLane="0" toLane="0"/>
    <connection from="-101316572#5" to="-101316572#4" fromLane="1" toLane="1"/>
    <connection from="-101316572#5" to="-101316572#4" fromLane="2" toLane="2"/>
    <connection from="-101316572#5" to="101316572#5" fromLane="2" toLane="2"/>

    <connection from="-101316623#0" to="101317555#3" fromLane="0" toLane="0"/>
    <connection from="-101316623#0" to="101317555#3" fromLane="1" toLane="1"/>
    <connection from="-101316623#0" to="-101317555#2" fromLane="2" toLane="1"/>
    <connection from="-101316623#0" to="-101317555#2" fromLane="2" toLane="2"/>
    <connection from="-101316623#0" to="101316623#0" fromLane="2" toLane="2"/>

    <connection from="-101316623#1" to="-265418687" fromLane="0" toLane="0"/>
    <connection from="-101316623#1" to="-101316623#0" fromLane="0" toLane="0"/>
    <connection from="-101316623#1" to="-101316623#0" fromLane="1" toLane="1"/>
    <connection from="-101316623#1" to="-101316623#0" fromLane="2" toLane="2"/>
    <connection from="-101316623#1" to="101316623#1" fromLane="2" toLane="2"/>

    <connection from="-101316623#10" to="580915655#12" fromLane="0" toLane="0"/>
    <connection from="-101316623#10" to="-101316623#8" fromLane="0" toLane="0"/>
    <connection from="-101316623#10" to="-101316623#8" fromLane="1" toLane="1"/>
    <connection from="-101316623#10" to="-101316623#8" fromLane="2" toLane="2"/>
    <connection from="-101316623#10" to="258357774#5" fromLane="2" toLane="2"/>
    <connection from="-101316623#10" to="101316623#10" fromLane="2" toLane="2"/>

    <connection from="-101316623#11" to="265418432" fromLane="0" toLane="0"/>
    <connection from="-101316623#11" to="-101316623#10" fromLane="0" toLane="0"/>
    <connection from="-101316623#11" to="-101316623#10" fromLane="1" toLane="1"/>
    <connection from="-101316623#11" to="-101316623#10" fromLane="2" toLane="2"/>
    <connection from="-101316623#11" to="101316623#11" fromLane="2" toLane="2"/>

    <connection from="-101316623#12" to="242596844" fromLane="0" toLane="0"/>
    <connection from="-101316623#12" to="-101316623#11" fromLane="0" toLane="0"/>
    <connection from="-101316623#12" to="-101316623#11" fromLane="1" toLane="1"/>
    <connection from="-101316623#12" to="-101316623#11" fromLane="2" toLane="2"/>
    <connection from="-101316623#12" to="101316623#12" fromLane="2" toLane="2"/>

    <connection from="-101316623#13" to="242567492#0" fromLane="0" toLane="0"/>
    <connection from="-101316623#13" to="-101316623#12" fromLane="0" toLane="0"/>
    <connection from="-101316623#13" to="-101316623#12" fromLane="1" toLane="1"/>
    <connection from="-101316623#13" to="-101316623#12" fromLane="2" toLane="2"/>
    <connection from="-101316623#13" to="101316623#13" fromLane="2" toLane="2"/>

    <connection from="-101316623#2" to="-101316623#1" fromLane="0" toLane="0"/>
    <connection from="-101316623#2" to="-101316623#1" fromLane="1" toLane="1"/>
    <connection from="-101316623#2" to="-101316623#1" fromLane="2" toLane="2"/>
    <connection from="-101316623#2" to="517082048#0" fromLane="2" toLane="1"/>
    <connection from="-101316623#2" to="517082048#0" fromLane="2" toLane="2"/>
    <connection from="-101316623#2" to="101316623#2" fromLane="2" toLane="2"/>

    <connection from="-101316623#3" to="-101316623#2" fromLane="0" toLane="0"/>
    <connection from="-101316623#3" to="-101316623#2" fromLane="1" toLane="1"/>
    <connection from="-101316623#3" to="-101316623#2" fromLane="2" toLane="2"/>
    <connection from="-101316623#3" to="265418691" fromLane="2" toLane="1"/>
    <connection from="-101316623#3" to="265418691" fromLane="2" toLane="2"/>
    <connection from="-101316623#3" to="101316623#3" fromLane="2" toLane="2"/>

    <connection from="-101316623#4" to="-101316623#3" fromLane="0" toLane="0"/>
    <connection from="-101316623#4" to="-101316623#3" fromLane="1" toLane="1"/>
    <connection from="-101316623#4" to="-101316623#3" fromLane="2" toLane="2"/>
    <connection from="-101316623#4" to="265418688" fromLane="2" toLane="1"/>
    <connection from="-101316623#4" to="265418688" fromLane="2" toLane="2"/>
    <connection from="-101316623#4" to="101316623#4" fromLane="2" toLane="2"/>

    <connection from="-101316623#5" to="-101316623#4" fromLane="0" toLane="0"/>