<?xml version="1.0" encoding="UTF-8"?>

<!-- generated on Thu Oct 31 16:38:27 2019 by Eclipse SUMO netconvert Version 1.2.0
<configuration xmlns:xsi="http://www.w3.org/2001/XMLSchema-instance" xsi:noNamespaceSchemaLocation="http://sumo.dlr.de/xsd/netconvertConfiguration.xsd">

    <input>
        <sumo-net-file value="/Users/zhuliwen/Downloads/福田区和宝安区路网/BaoAn/BaoAn.net.xml"/>
    </input>

    <output>
        <plain-output-prefix value="BaoAn"/>
        <output.street-names value="true"/>
    </output>

    <projection>
        <proj.plain-geo value="true"/>
    </projection>

    <processing>
        <geometry.max-grade.fix value="false"/>
        <offset.disable-normalization value="true"/>
        <lefthand value="false"/>
    </processing>

    <junctions>
        <no-turnarounds value="true"/>
        <junctions.corner-detail value="5"/>
        <junctions.limit-turn-speed value="5.5"/>
        <rectangular-lane-cut value="false"/>
    </junctions>

    <pedestrian>
        <walkingareas value="false"/>
    </pedestrian>

</configuration>
-->

<nodes version="1.1" xmlns:xsi="http://www.w3.org/2001/XMLSchema-instance" xsi:noNamespaceSchemaLocation="http://sumo.dlr.de/xsd/nodes_file.xsd">
    <node id="-239061378#4-AddedOnRampNode" x="113.880669" y="22.554075" type="priority"/>
    <node id="-247187939#3-AddedOnRampNode" x="113.854337" y="22.564305" type="priority"/>
    <node id="-96392610#1-AddedOnRampNode" x="113.907740" y="22.563430" type="priority"/>
    <node id="-96392610#6-AddedOffRampNode" x="113.905698" y="22.565471" type="priority"/>
    <node id="101315820#14-AddedOffRampNode" x="113.895236" y="22.568689" type="priority"/>
    <node id="101315896#2-AddedOffRampNode" x="113.886400" y="22.555568" type="priority"/>
    <node id="101315896#9-AddedOnRampNode" x="113.884367" y="22.553820" type="priority"/>
    <node id="101315907#1-AddedOffRampNode" x="113.873053" y="22.564341" type="priority"/>
    <node id="101315907#6-AddedOnRampNode" x="113.875113" y="22.566131" type="priority"/>
    <node id="101315995#3-AddedOffRampNode" x="113.888064" y="22.562668" type="priority"/>
    <node id="101316146#12-AddedOffRampNode" x="113.860871" y="22.575882" type="priority"/>
    <node id="101316146#2-AddedOffRampNode" x="113.866864" y="22.571138" type="priority"/>
    <node id="101316146#7-AddedOnRampNode" x="113.864676" y="22.572868" type="priority"/>
    <node id="101316205#12-AddedOnRampNode" x="113.877895" y="22.559897" type="priority"/>
    <node id="101316205#21-AddedOnRampNode" x="113.874305" y="22.556760" type="priority"/>
    <node id="101316205#5-AddedOffRampNode" x="113.880071" y="22.561779" type="priority"/>
    <node id="101316234#21-AddedOnRampNode" x="113.871817" y="22.559295" type="priority"/>
    <node id="101316234#29-AddedOffRampNode" x="113.869126" y="22.556967" type="priority"/>
    <node id="101316234#29-AddedOnRampNode" x="113.869369" y="22.557177" type="priority"/>
    <node id="101316234#6-AddedOffRampNode" x="113.877512" y="22.564220" type="priority"/>
    <node id="101316262#11-AddedOffRampNode" x="113.878169" y="22.550677" type="priority"/>
    <node id="101316262#11-AddedOnRampNode" x="113.878899" y="22.550657" type="priority"/>
    <node id="101316262#4-AddedOffRampNode" x="113.881971" y="22.550150" type="priority"/>
    <node id="101316517#0-AddedOffRampNode" x="113.858581" y="22.559681" type="priority"/>
    <node id="101316517#2-AddedOnRampNode" x="113.847007" y="22.569399" type="priority"/>
    <node id="101317201#0-AddedOffRampNode" x="113.887576" y="22.550002" type="priority"/>
    <node id="101317201#19-AddedOffRampNode" x="113.878712" y="22.552813" type="priority"/>
    <node id="101317201#19-AddedOnRampNode" x="113.879012" y="22.552803" type="priority"/>
    <node id="101317201#32-AddedOffRampNode" x="113.873850" y="22.552360" type="priority"/>
    <node id="101317201#32-AddedOnRampNode" x="113.874172" y="22.552444" type="priority"/>
    <node id="101317201#39-AddedOnRampNode" x="113.870828" y="22.551246" type="priority"/>
    <node id="101317201#7-AddedOffRampNode" x="113.884300" y="22.551764" type="priority"/>
    <node id="101317201#7-AddedOnRampNode" x="113.885067" y="22.551438" type="priority"/>
    <node id="101317499#16-AddedOnRampNode" x="113.862289" y="22.567569" type="priority"/>
    <node id="101317499#19-AddedOffRampNode" x="113.860597" y="22.565585" type="priority"/>
    <node id="101317499#2-AddedOnRampNode" x="113.867943" y="22.575082" type="priority"/>
    <node id="101317499#24-AddedOnRampNode" x="113.858598" y="22.563344" type="priority"/>
    <node id="101317499#3-AddedOffRampNode" x="113.866471" y="22.573085" type="priority"/>
    <node id="101317499#8-AddedOnRampNode" x="113.864884" y="22.570929" type="priority"/>
    <node id="101317524#10-AddedOnRampNode" x="113.887114" y="22.553156" type="priority"/>
    <node id="101317524#11-AddedOffRampNode" x="113.886427" y="22.553819" type="priority"/>
    <node id="101317524#18-AddedOnRampNode" x="113.884561" y="22.555578" type="priority"/>
    <node id="101317524#2-AddedOnRampNode" x="113.889260" y="22.551132" type="priority"/>
    <node id="101317524#20-AddedOffRampNode" x="113.883528" y="22.556579" type="priority"/>
    <node id="101317524#3-AddedOffRampNode" x="113.888950" y="22.551421" type="priority"/>
    <node id="101317885#1-AddedOnRampNode" x="113.854547" y="22.585564" type="priority"/>
    <node id="101317885#11-AddedOnRampNode" x="113.848000" y="22.578797" type="priority"/>
    <node id="1117026165" x="113.915390" y="22.567179" type="priority"/>
    <node id="1117026227" x="113.915422" y="22.564935" type="right_before_left"/>
    <node id="1117026230" x="113.912946" y="22.564374" type="right_before_left"/>
    <node id="1117026307" x="113.912944" y="22.566542" type="priority"/>
    <node id="1117026381" x="113.915429" y="22.564451" type="priority"/>
    <node id="1117026468" x="113.913990" y="22.564377" type="traffic_light" tl="1117026468"/>
    <node id="1117026516" x="113.915821" y="22.564932" type="priority"/>
    <node id="1117053724" x="113.910979" y="22.560011" type="priority"/>
    <node id="1117053793" x="113.905899" y="22.572328" type="traffic_light" tl="1117053793"/>
    <node id="1117053815" x="113.911181" y="22.562071" type="priority"/>
    <node id="1117053905" x="113.905932" y="22.556309" type="priority"/>
    <node id="1117053918" x="113.902008" y="22.563972" type="priority"/>
    <node id="1117053967" x="113.911287" y="22.562148" type="right_before_left"/>
    <node id="1117053976" x="113.908900" y="22.570967" type="traffic_light" tl="1117053976"/>
    <node id="1117053979" x="113.907622" y="22.558374" type="traffic_light" tl="1117053979"/>
    <node id="1117054005" x="113.908084" y="22.565502" type="priority"/>
    <node id="1117054007" x="113.910558" y="22.560494" type="priority"/>
    <node id="1117054096" x="113.911217" y="22.560627" type="priority"/>
    <node id="1117054116" x="113.913731" y="22.571197" type="traffic_light" tl="1117054116"/>
    <node id="1117054155" x="113.905979" y="22.560010" type="traffic_light" tl="1117054155"/>
    <node id="1117060798" x="113.899300" y="22.566680" type="traffic_light" tl="1117060798"/>
    <node id="1169591907" x="113.853000" y="22.568199" type="priority"/>
    <node id="1169591965" x="113.857762" y="22.568249" type="traffic_light" tl="1169591965"/>
    <node id="1169592107" x="113.879387" y="22.558579" type="dead_end"/>
    <node id="1169592168" x="113.853264" y="22.566377" type="dead_end"/>
    <node id="1169592282" x="113.894470" y="22.552626" type="priority"/>
    <node id="1169592349" x="113.849485" y="22.584968" type="priority"/>
    <node id="1169592438" x="113.855354" y="22.566812" type="dead_end"/>
    <node id="1169592439" x="113.863536" y="22.560424" type="priority"/>
    <node id="1169592771" x="113.857452" y="22.571861" type="priority"/>
    <node id="1169592843" x="113.891720" y="22.568372" type="priority"/>
    <node id="1169592906" x="113.852274" y="22.585628" type="priority"/>
    <node id="1169593014" x="113.865054" y="22.537301" type="priority"/>
    <node id="1169593184" x="113.853266" y="22.566730" type="dead_end"/>
    <node id="1169593386" x="113.855290" y="22.566784" type="dead_end"/>
    <node id="1169593746" x="113.876953" y="22.558364" type="right_before_left"/>
    <node id="1169593761" x="113.854955" y="22.566765" type="dead_end"/>
    <node id="1169593833" x="113.863699" y="22.562833" type="priority"/>
    <node id="1169593923" x="113.854046" y="22.567278" type="dead_end"/>
    <node id="1169593924" x="113.850542" y="22.571825" type="traffic_light" tl="1169593924"/>
    <node id="1169593949" x="113.860416" y="22.569439" type="traffic_light" tl="1169593949"/>
    <node id="1169594058" x="113.878032" y="22.557930" type="right_before_left"/>
    <node id="1169594107" x="113.909707" y="22.544823" type="dead_end"/>
    <node id="1169594183" x="113.894344" y="22.553450" type="dead_end"/>
    <node id="1169594214" x="113.891755" y="22.565573" type="priority"/>
    <node id="1169594304" x="113.855656" y="22.566525" type="dead_end"/>
    <node id="1169594366" x="113.858686" y="22.573478" type="dead_end"/>
    <node id="1169594488" x="113.854734" y="22.566875" type="dead_end"/>
    <node id="1169594513" x="113.853135" y="22.567090" type="dead_end"/>
    <node id="1169594536" x="113.856538" y="22.571894" type="traffic_light" tl="1169594536"/>
    <node id="1169594635" x="113.877099" y="22.558607" type="right_before_left"/>
    <node id="1169594659" x="113.853520" y="22.567666" type="dead_end"/>
    <node id="1169594683" x="113.854984" y="22.566345" type="dead_end"/>
    <node id="1169594718" x="113.859850" y="22.565542" type="priority"/>
    <node id="1169594750" x="113.859107" y="22.572538" type="dead_end"/>
    <node id="1169594826" x="113.877910" y="22.559163" type="priority"/>
    <node id="1169595011" x="113.846284" y="22.583815" type="priority"/>
    <node id="1169595079" x="113.855136" y="22.566580" type="dead_end"/>
    <node id="1169595146" x="113.858987" y="22.575033" type="dead_end"/>
    <node id="1169595224" x="113.892016" y="22.566647" type="priority"/>
    <node id="1169595334" x="113.855242" y="22.567114" type="priority"/>
    <node id="1169595397" x="113.855716" y="22.571270" type="priority"/>
    <node id="1169595550" x="113.912906" y="22.553264" type="priority"/>
    <node id="1169595601" x="113.858444" y="22.568968" type="traffic_light" tl="1169595601"/>
    <node id="1169595762" x="113.856719" y="22.566760" type="traffic_light" tl="1169595762"/>
    <node id="1169595847" x="113.887967" y="22.552325" type="priority"/>
    <node id="1169595856" x="113.894062" y="22.552604" type="dead_end"/>
    <node id="1169596354" x="113.853454" y="22.569695" type="dead_end"/>
    <node id="1169596555" x="113.852981" y="22.566426" type="dead_end"/>
    <node id="1169596556" x="113.845521" y="22.571783" type="priority"/>
    <node id="1169596635" x="113.892502" y="22.551860" type="dead_end"/>
    <node id="1169596873" x="113.880509" y="22.552745" type="priority"/>
    <node id="1169597063" x="113.855851" y="22.567479" type="priority"/>
    <node id="1169597219" x="113.877168" y="22.558133" type="right_before_left"/>
    <node id="1169597262" x="113.855035" y="22.566504" type="dead_end"/>
    <node id="1169597568" x="113.854734" y="22.566972" type="dead_end"/>
    <node id="1169597602" x="113.859303" y="22.568264" type="traffic_light" tl="1169597602"/>
    <node id="1169597671" x="113.859409" y="22.572861" type="dead_end"/>
    <node id="1169597795" x="113.848524" y="22.585907" type="priority"/>
    <node id="1169597816" x="113.880486" y="22.558794" type="right_before_left"/>
    <node id="1169598137" x="113.855365" y="22.566689" type="dead_end"/>
    <node id="1169598139" x="113.868437" y="22.584830" type="priority"/>
    <node id="1169598193" x="113.860273" y="22.573153" type="dead_end"/>
    <node id="1169598344" x="113.854182" y="22.566630" type="priority"/>
    <node id="1169598445" x="113.854241" y="22.569449" type="traffic_light" tl="1169598445"/>
    <node id="1169598560" x="113.893780" y="22.566800" type="priority"/>
    <node id="1169598918" x="113.859485" y="22.566327" type="priority"/>
    <node id="1169599031" x="113.860034" y="22.572322" type="dead_end"/>
    <node id="1169599240" x="113.879588" y="22.558728" type="dead_end"/>
    <node id="1169599610" x="113.893907" y="22.552825" type="dead_end"/>
    <node id="1169599758" x="113.878468" y="22.558375" type="dead_end"/>
    <node id="1169600082" x="113.893998" y="22.553502" type="priority"/>
    <node id="1169600193" x="113.855034" y="22.566898" type="dead_end"/>
    <node id="1169600281" x="113.854600" y="22.568760" type="priority"/>
    <node id="1169600372" x="113.894316" y="22.565374" type="priority"/>
    <node id="1169600459" x="113.852089" y="22.584913" type="priority"/>
    <node id="1169600510" x="113.852636" y="22.568953" type="priority"/>
    <node id="1169600594" x="113.858993" y="22.569547" type="traffic_light" tl="1169600594"/>
    <node id="1169600814" x="113.845927" y="22.570325" type="dead_end"/>
    <node id="1169600956" x="113.882345" y="22.557731" type="priority"/>
    <node id="1169601231" x="113.880347" y="22.548810" type="priority"/>
    <node id="1169601377" x="113.894499" y="22.567894" type="priority"/>
    <node id="1169601514" x="113.854991" y="22.567318" type="priority"/>
    <node id="1169601515" x="113.894323" y="22.565062" type="priority"/>
    <node id="1169601621" x="113.892663" y="22.551113" type="priority"/>
    <node id="1169601711" x="113.880451" y="22.557848" type="right_before_left"/>
    <node id="1169601756" x="113.902713" y="22.548368" type="dead_end"/>
    <node id="1169601893" x="113.842516" y="22.578429" type="priority"/>
    <node id="1169602045" x="113.852770" y="22.566201" type="dead_end"/>
    <node id="1169602081" x="113.861213" y="22.569061" type="traffic_light" tl="1169602081"/>
    <node id="1169602508" x="113.893142" y="22.566047" type="priority"/>
    <node id="1169602548" x="113.849227" y="22.585459" type="priority"/>
    <node id="1169602801" x="113.877566" y="22.558122" type="priority"/>
    <node id="1169602824" x="113.894573" y="22.562547" type="traffic_light" tl="1169602824"/>
    <node id="1169603044" x="113.853473" y="22.567135" type="dead_end"/>
    <node id="1169603073" x="113.854914" y="22.566034" type="priority"/>
    <node id="1169603101" x="113.858884" y="22.567358" type="traffic_light" tl="1169603101"/>
    <node id="1169603143" x="113.860590" y="22.572887" type="priority"/>
    <node id="1169603181" x="113.891336" y="22.565405" type="priority"/>
    <node id="1169603247" x="113.846711" y="22.588733" type="dead_end"/>
    <node id="1169603260" x="113.879622" y="22.558938" type="dead_end"/>
    <node id="1169603419" x="113.896760" y="22.549315" type="priority"/>
    <node id="1169603621" x="113.859429" y="22.573865" type="dead_end"/>
    <node id="1169603810" x="113.852339" y="22.567455" type="dead_end"/>
    <node id="1169603876" x="113.902168" y="22.548374" type="priority"/>
    <node id="1169604029" x="113.870744" y="22.575331" type="priority"/>
    <node id="1169604068" x="113.860806" y="22.565828" type="traffic_light" tl="1169604068"/>
    <node id="1169604257" x="113.853170" y="22.566627" type="dead_end"/>
    <node id="1169604446" x="113.878183" y="22.558443" type="priority"/>
    <node id="1169604708" x="113.854911" y="22.567157" type="dead_end"/>
    <node id="1169604760" x="113.857086" y="22.571463" type="traffic_light" tl="1169604760"/>
    <node id="1169604908" x="113.852471" y="22.584709" type="traffic_light" tl="1169604908"/>
    <node id="1169605052" x="113.874075" y="22.550086" type="priority"/>
    <node id="1169605403" x="113.855079" y="22.566856" type="dead_end"/>
    <node id="1169605406" x="113.870495" y="22.562636" type="priority"/>
    <node id="1169605628" x="113.856070" y="22.566436" type="priority"/>
    <node id="1169605652" x="113.856037" y="22.559091" type="traffic_light" tl="1169605652"/>
    <node id="1169605712" x="113.892270" y="22.550784" type="priority"/>
    <node id="1169605808" x="113.877336" y="22.557949" type="right_before_left"/>
    <node id="1169605830" x="113.855070" y="22.567052" type="dead_end"/>
    <node id="1169606037" x="113.852702" y="22.568891" type="priority"/>
    <node id="1169606058" x="113.848089" y="22.569203" type="priority"/>
    <node id="1169606076" x="113.859976" y="22.567733" type="traffic_light" tl="1169606076"/>
    <node id="1169606120" x="113.892276" y="22.567204" type="priority"/>
    <node id="1169606228" x="113.855390" y="22.566828" type="dead_end"/>
    <node id="1169606346" x="113.894826" y="22.552925" type="priority"/>
    <node id="1169606410" x="113.847186" y="22.584510" type="priority"/>
    <node id="1169606447" x="113.860355" y="22.587193" type="traffic_light" tl="1169606447"/>
    <node id="1169606485" x="113.855789" y="22.566666" type="priority"/>
    <node id="1169606543" x="113.862569" y="22.569072" type="priority"/>
    <node id="1169606546" x="113.858370" y="22.573130" type="dead_end"/>
    <node id="1169606702" x="113.854304" y="22.566526" type="priority"/>
    <node id="1169606709" x="113.901332" y="22.564648" type="priority"/>
    <node id="1169606924" x="113.853315" y="22.567410" type="dead_end"/>
    <node id="1169606980" x="113.859889" y="22.566527" type="traffic_light" tl="1169606980"/>
    <node id="1169607015" x="113.857662" y="22.573699" type="dead_end"/>
    <node id="1169607112" x="113.878404" y="22.558937" type="dead_end"/>
    <node id="1169607258" x="113.893780" y="22.552973" type="dead_end"/>
    <node id="1169607333" x="113.878460" y="22.557917" type="right_before_left"/>
    <node id="1169607456" x="113.859816" y="22.574323" type="dead_end"/>
    <node id="1169607616" x="113.854890" y="22.566856" type="dead_end"/>
    <node id="1169607644" x="113.852390" y="22.568047" type="dead_end"/>
    <node id="1169607914" x="113.853244" y="22.568419" type="priority"/>
    <node id="1169607915" x="113.913463" y="22.553876" type="priority"/>
    <node id="1169607989" x="113.861454" y="22.566589" type="traffic_light" tl="1169607989"/>
    <node id="1169608250" x="113.852387" y="22.566733" type="dead_end"/>
    <node id="1169608512" x="113.869487" y="22.550547" type="dead_end"/>
    <node id="1169608682" x="113.854774" y="22.568161" type="dead_end"/>
    <node id="1169608728" x="113.855761" y="22.570022" type="traffic_light" tl="1169608728"/>
    <node id="1169608822" x="113.852697" y="22.585687" type="priority"/>
    <node id="1169608849" x="113.909734" y="22.548346" type="priority"/>
    <node id="1169608945" x="113.880430" y="22.550494" type="priority"/>
    <node id="1169609002" x="113.879526" y="22.558207" type="dead_end"/>
    <node id="1169609042" x="113.853477" y="22.566340" type="priority"/>
    <node id="1169609044" x="113.843487" y="22.574153" type="dead_end"/>
    <node id="1169609130" x="113.892965" y="22.551366" type="priority"/>
    <node id="1169609260" x="113.855570" y="22.566602" type="dead_end"/>
    <node id="1169609548" x="113.849299" y="22.565812" type="priority"/>
    <node id="1169609581" x="113.855351" y="22.567888" type="priority"/>
    <node id="1169609734" x="113.877302" y="22.557203" type="right_before_left"/>
    <node id="1169609832" x="113.860293" y="22.553017" type="priority"/>
    <node id="1169609895" x="113.864044" y="22.562809" type="priority"/>
    <node id="1169610020" x="113.854580" y="22.567291" type="dead_end"/>
    <node id="1169610097" x="113.859868" y="22.568874" type="traffic_light" tl="1169610097"/>
    <node id="1169610147" x="113.858769" y="22.572178" type="dead_end"/>
    <node id="1169610548" x="113.878721" y="22.558491" type="dead_end"/>
    <node id="1169610670" x="113.860929" y="22.573881" type="dead_end"/>
    <node id="1169610805" x="113.878050" y="22.558754" type="priority"/>
    <node id="1169610839" x="113.853008" y="22.567472" type="dead_end"/>
    <node id="1169610865" x="113.855850" y="22.571162" type="traffic_light" tl="1169610865"/>
    <node id="1169610984" x="113.853725" y="22.567474" type="dead_end"/>
    <node id="1169611006" x="113.855104" y="22.566247" type="dead_end"/>
    <node id="1169611007" x="113.869474" y="22.578738" type="traffic_light" tl="1169611007"/>
    <node id="1169611033" x="113.857178" y="22.567633" type="traffic_light" tl="1169611033"/>
    <node id="1169611061" x="113.859737" y="22.572020" type="dead_end"/>
    <node id="1169611170" x="113.853427" y="22.567564" type="dead_end"/>
    <node id="1169611245" x="113.899028" y="22.549523" type="dead_end"/>
    <node id="1169611587" x="113.855117" y="22.566821" type="dead_end"/>
    <node id="1169611879" x="113.862024" y="22.567253" type="traffic_light" tl="1169611879"/>
    <node id="1169612094" x="113.860150" y="22.570766" type="priority"/>
    <node id="1169612195" x="113.885451" y="22.554745" type="priority"/>
    <node id="1169612197" x="113.894136" y="22.552700" type="dead_end"/>
    <node id="1169612462" x="113.893567" y="22.566365" type="priority"/>
    <node id="1169612551" x="113.854738" y="22.567344" type="dead_end"/>
    <node id="1169612727" x="113.851811" y="22.585563" type="priority"/>
    <node id="1169612737" x="113.880880" y="22.558285" type="right_before_left"/>
    <node id="1169612935" x="113.846575" y="22.587191" type="right_before_left"/>
    <node id="1169612986" x="113.847758" y="22.574109" type="traffic_light" tl="1169612986"/>
    <node id="1169613059" x="113.893372" y="22.551707" type="priority"/>
    <node id="1169613153" x="113.876940" y="22.556236" type="priority"/>
    <node id="1169613259" x="113.847738" y="22.586377" type="dead_end"/>
    <node id="1169613306" x="113.853771" y="22.566654" type="priority"/>
    <node id="1169613331" x="113.855181" y="22.561818" type="traffic_light" tl="1169613331"/>
    <node id="1169613367" x="113.855605" y="22.567680" type="priority"/>
    <node id="1169613473" x="113.877374" y="22.558331" type="right_before_left"/>
    <node id="1169613488" x="113.854974" y="22.566591" type="dead_end"/>
    <node id="1169613533" x="113.856382" y="22.569521" type="priority"/>
    <node id="1169613640" x="113.853645" y="22.567135" type="dead_end"/>
    <node id="1169613683" x="113.859547" y="22.568072" type="priority"/>
    <node id="1169613711" x="113.859950" y="22.573425" type="dead_end"/>
    <node id="1169613803" x="113.880000" y="22.559081" type="right_before_left"/>
    <node id="1169614131" x="113.860081" y="22.574589" type="dead_end"/>
    <node id="1169614176" x="113.892533" y="22.567411" type="priority"/>
    <node id="1169614249" x="113.854752" y="22.566645" type="dead_end"/>
    <node id="1169614250" x="113.897288" y="22.560431" type="traffic_light" tl="1169614250"/>
    <node id="1169614271" x="113.852378" y="22.567009" type="dead_end"/>
    <node id="1169614297" x="113.855202" y="22.570471" type="traffic_light" tl="1169614297"/>
    <node id="1169614459" x="113.857488" y="22.567960" type="traffic_light" tl="1169614459"/>
    <node id="1169614623" x="113.853106" y="22.566724" type="dead_end"/>
    <node id="1169614716" x="113.894103" y="22.552319" type="priority"/>
    <node id="1169615078" x="113.855008" y="22.567026" type="dead_end"/>
    <node id="1169615139" x="113.856401" y="22.570718" type="traffic_light" tl="1169615139"/>
    <node id="1169615199" x="113.891063" y="22.568964" type="priority"/>
    <node id="1169615263" x="113.851152" y="22.583966" type="traffic_light" tl="1169615263"/>
    <node id="1169615295" x="113.859009" y="22.571375" type="right_before_left"/>
    <node id="1169615437" x="113.871036" y="22.548790" type="dead_end"/>
    <node id="1169615546" x="113.879368" y="22.557887" type="right_before_left"/>
    <node id="1169615624" x="113.860682" y="22.557760" type="priority"/>
    <node id="1169615660" x="113.849728" y="22.560607" type="traffic_light" tl="1169615660"/>
    <node id="1169615903" x="113.870423" y="22.558089" type="traffic_light" tl="1169615903"/>
    <node id="1169616133" x="113.894034" y="22.565283" type="priority"/>
    <node id="1169616237" x="113.892188" y="22.551634" type="dead_end"/>
    <node id="1169616313" x="113.880432" y="22.557099" type="right_before_left"/>
    <node id="1169616503" x="113.853162" y="22.566018" type="priority"/>
    <node id="1169616525" x="113.860545" y="22.568354" type="traffic_light" tl="1169616525"/>
    <node id="1169616655" x="113.868382" y="22.551716" type="dead_end"/>
    <node id="1169616784" x="113.856100" y="22.590373" type="priority"/>
    <node id="1169616850" x="113.858044" y="22.572784" type="dead_end"/>
    <node id="1169616891" x="113.894516" y="22.568083" type="priority"/>
    <node id="1169616956" x="113.899548" y="22.558307" type="priority"/>
    <node id="1169616973" x="113.853204" y="22.567697" type="dead_end"/>
    <node id="1169616999" x="113.856078" y="22.572256" type="priority"/>
    <node id="1169617129" x="113.854776" y="22.566144" type="priority"/>
    <node id="1169617157" x="113.860560" y="22.567272" type="traffic_light" tl="1169617157"/>
    <node id="1169617197" x="113.858557" y="22.574600" type="dead_end"/>
    <node id="1169617227" x="113.891718" y="22.567943" type="priority"/>
    <node id="1169617582" x="113.843970" y="22.599596" type="priority"/>
    <node id="1169617609" x="113.878364" y="22.558811" type="dead_end"/>
    <node id="1169617739" x="113.860674" y="22.573598" type="dead_end"/>
    <node id="1169617905" x="113.853093" y="22.567474" type="dead_end"/>
    <node id="165265283#0-AddedOffRampNode" x="113.907954" y="22.551034" type="priority"/>
    <node id="173087899#0-AddedOffRampNode" x="113.846464" y="22.569587" type="priority"/>
    <node id="1768207379" x="113.899729" y="22.549296" type="dead_end"/>
    <node id="1768207446" x="113.898673" y="22.550950" type="priority"/>
    <node id="1768207448" x="113.897689" y="22.551227" type="priority"/>
    <node id="1768207574" x="113.915731" y="22.554873" type="priority"/>
    <node id="1768207575" x="113.918144" y="22.554830" type="dead_end"/>
    <node id="1768207593" x="113.917696" y="22.555204" type="dead_end"/>
    <node id="1768207597" x="113.917842" y="22.555267" type="priority"/>
    <node id="1768207600" x="113.918966" y="22.555288" type="dead_end"/>
    <node id="1768207602" x="113.914798" y="22.555529" type="priority"/>
    <node id="1768207611" x="113.918991" y="22.556061" type="dead_end"/>
    <node id="1768207612" x="113.917598" y="22.556071" type="dead_end"/>
    <node id="1851261046" x="113.894241" y="22.597427" type="priority"/>
    <node id="1851261050" x="113.895136" y="22.594016" type="priority"/>
    <node id="1851261791" x="113.893150" y="22.598061" type="priority"/>
    <node id="1851261793" x="113.894869" y="22.594060" type="priority"/>
    <node id="187408911#1-AddedOnRampNode" x="113.916770" y="22.568298" type="priority"/>
    <node id="1901985049" x="113.865166" y="22.582607" type="priority"/>
    <node id="1930292722" x="113.865056" y="22.597832" type="traffic_light" tl="1930292722"/>
    <node id="1930292723" x="113.867842" y="22.593650" type="priority"/>
    <node id="1930306489" x="113.872702" y="22.587996" type="priority"/>
    <node id="1930310345" x="113.869707" y="22.590380" type="priority"/>
    <node id="1930310350" x="113.869282" y="22.585693" type="priority"/>
    <node id="1930310367" x="113.871961" y="22.587961" type="priority"/>
    <node id="1930311288" x="113.871635" y="22.587206" type="priority"/>
    <node id="1930311294" x="113.870419" y="22.589433" type="priority"/>
    <node id="1930317371" x="113.877936" y="22.581586" type="priority"/>
    <node id="1932069326" x="113.844131" y="22.599742" type="traffic_light" tl="1932069326"/>
    <node id="1932069385" x="113.847990" y="22.593479" type="priority"/>
    <node id="1955051462" x="113.860561" y="22.557672" type="priority"/>
    <node id="1955053614" x="113.847183" y="22.568980" type="priority"/>
    <node id="1955053616" x="113.845774" y="22.570171" type="dead_end"/>
    <node id="1981097769" x="113.918179" y="22.562924" type="dead_end"/>
    <node id="1981097795" x="113.918092" y="22.568987" type="dead_end"/>
    <node id="1981097796" x="113.918033" y="22.569059" type="dead_end"/>
    <node id="1981117540" x="113.899633" y="22.578598" type="traffic_light" tl="1981117540"/>
    <node id="1981117542" x="113.913971" y="22.578792" type="traffic_light" tl="1981117542"/>
    <node id="1981117562" x="113.908725" y="22.581104" type="traffic_light" tl="1981117562"/>
    <node id="1981117566" x="113.907450" y="22.582368" type="traffic_light" tl="1981117566"/>
    <node id="1981117578" x="113.906461" y="22.584473" type="priority"/>
    <node id="1981117588" x="113.893970" y="22.585215" type="traffic_light" tl="1981117588"/>
    <node id="1981117597" x="113.907430" y="22.585338" type="traffic_light" tl="1981117597"/>
    <node id="1981117623" x="113.903542" y="22.586304" type="priority"/>
    <node id="1981117633" x="113.911516" y="22.587504" type="priority"/>
    <node id="1981117664" x="113.905387" y="22.587789" type="traffic_light" tl="1981117664"/>
    <node id="1981117669" x="113.913471" y="22.589211" type="priority"/>
    <node id="203423400#3-AddedOffRampNode" x="113.855052" y="22.555872" type="priority"/>
    <node id="203423402#11-AddedOnRampNode" x="113.871488" y="22.557016" type="priority"/>
    <node id="203423402#13-AddedOffRampNode" x="113.871843" y="22.556659" type="priority"/>
    <node id="203424858#1-AddedOffRampNode" x="113.877550" y="22.573625" type="priority"/>
    <node id="203424858#1-AddedOnRampNode" x="113.876579" y="22.572779" type="priority"/>
    <node id="203424858#5-AddedOnRampNode" x="113.879526" y="22.575326" type="priority"/>
    <node id="203425502#2-AddedOnRampNode" x="113.893213" y="22.595386" type="priority"/>
    <node id="2129281458" x="113.821136" y="22.646375" type="dead_end"/>