<?xml version="1.0" encoding="UTF-8"?>

<!-- generated on Thu Oct 31 16:38:28 2019 by Eclipse SUMO netconvert Version 1.2.0
<configuration xmlns:xsi="http://www.w3.org/2001/XMLSchema-instance" xsi:noNamespaceSchemaLocation="http://sumo.dlr.de/xsd/netconvertConfiguration.xsd">

    <input>
        <sumo-net-file value="/Users/zhuliwen/Downloads/福田区和宝安区路网/BaoAn/BaoAn.net.xml"/>
    </input>

    <output>
        <plain-output-prefix value="BaoAn"/>
        <output.street-names value="true"/>
    </output>

    <projection>
        <proj.plain-geo value="true"/>
    </projection>

    <processing>
        <geometry.max-grade.fix value="false"/>
        <offset.disable-normalization value="true"/>
        <lefthand value="false"/>
    </processing>

    <junctions>
        <no-turnarounds value="true"/>
        <junctions.corner-detail value="5"/>
        <junctions.limit-turn-speed value="5.5"/>
        <rectangular-lane-cut value="false"/>
    </junctions>

    <pedestrian>
        <walkingareas value="false"/>
    </pedestrian>

</configuration>
-->

<tlLogics version="1.1" xmlns:xsi="http://www.w3.org/2001/XMLSchema-instance" xsi:noNamespaceSchemaLocation="http://sumo.dlr.de/xsd/tllogic_file.xsd">
    <tlLogic id="1117026468" type="actuated" programID="0" offset="0">
        <phase duration="20" state="gGGGrGGrrrrgrrr" minDur="10" maxDur="30"/>
        <phase duration="20" state="grrrGrrrGGGgrrr" minDur="10" maxDur="30"/>
        <phase duration="20" state="grrrrrrrrrrgGGG" minDur="10" maxDur="30"/>
    </tlLogic>
    <tlLogic id="1117053793" type="actuated" programID="0" offset="0">
        <phase duration="20" state="gGGGrGGrrrrgrrr" minDur="10" maxDur="30"/>
        <phase duration="20" state="grrrGrrrGGGgrrr" minDur="10" maxDur="30"/>
        <phase duration="20" state="grrrrrrrrrrgGGG" minDur="10" maxDur="30"/>
    </tlLogic>
    <tlLogic id="1117053976" type="actuated" programID="0" offset="0">
        <phase duration="20" state="gGGGrrrgrrrrrrgGGGrr" minDur="10" maxDur="30"/>
        <phase duration="20" state="grrrGGGgrrrrrrgrrrGG" minDur="10" maxDur="30"/>
        <phase duration="20" state="grrrrrrgGGGrrrgrrrrr" minDur="10" maxDur="30"/>
        <phase duration="20" state="grrrrrrgrrrGGGgrrrrr" minDur="10" maxDur="30"/>
    </tlLogic>
    <tlLogic id="1117053979" type="actuated" programID="0" offset="0">
        <phase duration="20" state="ggrrrggGGrGrrr" minDur="10" maxDur="30"/>
        <phase duration="20" state="ggrrrggrrGrGGG" minDur="10" maxDur="30"/>
        <phase duration="20" state="ggGGGggrrrrrrr" minDur="10" maxDur="30"/>
    </tlLogic>
    <tlLogic id="1117054116" type="actuated" programID="0" offset="0">
        <phase duration="20" state="GGGrrrgrrrrgGGGr" minDur="10" maxDur="30"/>
        <phase duration="20" state="rrrGGGgrrrrgrrrG" minDur="10" maxDur="30"/>
        <phase duration="20" state="rrrrrrgGGGGgrrrr" minDur="10" maxDur="30"/>
    </tlLogic>
    <tlLogic id="1117054155" type="actuated" programID="0" offset="0">
        <phase duration="20" state="grrrrrgGGGrrgrrrrrgGGGrr" minDur="10" maxDur="30"/>
        <phase duration="20" state="grrrrrgrrrGGgrrrrrgrrrGG" minDur="10" maxDur="30"/>
        <phase duration="20" state="gGGGrrgrrrrrgGGGrrgrrrrr" minDur="10" maxDur="30"/>
        <phase duration="20" state="grrrGGgrrrrrgrrrGGgrrrrr" minDur="10" maxDur="30"/>
    </tlLogic>
    <tlLogic id="1117060798" type="actuated" programID="0" offset="0">
        <phase duration="20" state="grrrrrgGGGrrgrrrrrgGGGrr" minDur="10" maxDur="30"/>
        <phase duration="20" state="grrrrrgrrrGGgrrrrrgrrrGG" minDur="10" maxDur="30"/>
        <phase duration="20" state="gGGGrrgrrrrrgGGGrrgrrrrr" minDur="10" maxDur="30"/>
        <phase duration="20" state="grrrGGgrrrrrgrrrGGgrrrrr" minDur="10" maxDur="30"/>
    </tlLogic>
    <tlLogic id="1169591965" type="actuated" programID="0" offset="0">
        <phase duration="20" state="gGGGrGGrrrrgrrr" minDur="10" maxDur="30"/>
        <phase duration="20" state="grrrGrrrGGGgrrr" minDur="10" maxDur="30"/>
        <phase duration="20" state="grrrrrrrrrrgGGG" minDur="10" maxDur="30"/>
    </tlLogic>
    <tlLogic id="1169593924" type="actuated" programID="0" offset="0">
        <phase duration="20" state="grrrrrgGGGrrgrrrrrgGGGrr" minDur="10" maxDur="30"/>
        <phase duration="20" state="grrrrrgrrrGGgrrrrrgrrrGG" minDur="10" maxDur="30"/>
        <phase duration="20" state="gGGGrrgrrrrrgGGGrrgrrrrr" minDur="10" maxDur="30"/>
        <phase duration="20" state="grrrGGgrrrrrgrrrGGgrrrrr" minDur="10" maxDur="30"/>
    </tlLogic>
    <tlLogic id="1169593949" type="actuated" programID="0" offset="0">
        <phase duration="20" state="gGGGrGGrrrrgrrr" minDur="10" maxDur="30"/>
        <phase duration="20" state="grrrGrrrGGGgrrr" minDur="10" maxDur="30"/>
        <phase duration="20" state="grrrrrrrrrrgGGG" minDur="10" maxDur="30"/>
    </tlLogic>
    <tlLogic id="1169594536" type="actuated" programID="0" offset="0">
        <phase duration="20" state="gGGGrGGrrrrgrrr" minDur="10" maxDur="30"/>
        <phase duration="20" state="grrrGrrrGGGgrrr" minDur="10" maxDur="30"/>
        <phase duration="20" state="grrrrrrrrrrgGGG" minDur="10" maxDur="30"/>
    </tlLogic>
    <tlLogic id="1169595601" type="actuated" programID="0" offset="0">
        <phase duration="20" state="gGGGrGGrrrrgrrr" minDur="10" maxDur="30"/>
        <phase duration="20" state="grrrGrrrGGGgrrr" minDur="10" maxDur="30"/>
        <phase duration="20" state="grrrrrrrrrrgGGG" minDur="10" maxDur="30"/>
    </tlLogic>
    <tlLogic id="1169595762" type="actuated" programID="0" offset="0">
        <phase duration="20" state="GGGrrrgrrrrgGGGr" minDur="10" maxDur="30"/>
        <phase duration="20" state="rrrGGGgrrrrgrrrG" minDur="10" maxDur="30"/>
        <phase duration="20" state="rrrrrrgGGGGgrrrr" minDur="10" maxDur="30"/>
    </tlLogic>
    <tlLogic id="1169597602" type="actuated" programID="0" offset="0">
        <phase duration="20" state="gGGGrGGrrrrgrrr" minDur="10" maxDur="30"/>
        <phase duration="20" state="grrrGrrrGGGgrrr" minDur="10" maxDur="30"/>
        <phase duration="20" state="grrrrrrrrrrgGGG" minDur="10" maxDur="30"/>
    </tlLogic>
    <tlLogic id="1169598445" type="actuated" programID="0" offset="0">
        <phase duration="20" state="gGGGrGGrrrrgrrr" minDur="10" maxDur="30"/>
        <phase duration="20" state="grrrGrrrGGGgrrr" minDur="10" maxDur="30"/>
        <phase duration="20" state="grrrrrrrrrrgGGG" minDur="10" maxDur="30"/>
    </tlLogic>
    <tlLogic id="1169600594" type="actuated" programID="0" offset="0">
        <phase duration="20" state="gGGGrGGrrrrgrrr" minDur="10" maxDur="30"/>
        <phase duration="20" state="grrrGrrrGGGgrrr" minDur="10" maxDur="30"/>
        <phase duration="20" state="grrrrrrrrrrgGGG" minDur="10" maxDur="30"/>
    </tlLogic>
    <tlLogic id="1169602081" type="actuated" programID="0" offset="0">
        <phase duration="20" state="gGGGrGGrrrrgrrr" minDur="10" maxDur="30"/>
        <phase duration="20" state="grrrGrrrGGGgrrr" minDur="10" maxDur="30"/>
        <phase duration="20" state="grrrrrrrrrrgGGG" minDur="10" maxDur="30"/>
    </tlLogic>
    <tlLogic id="1169602824" type="actuated" programID="0" offset="0">
        <phase duration="20" state="gGGGrGGrrrrgrrr" minDur="10" maxDur="30"/>
        <phase duration="20" state="grrrGrrrGGGgrrr" minDur="10" maxDur="30"/>
        <phase duration="20" state="grrrrrrrrrrgGGG" minDur="10" maxDur="30"/>
    </tlLogic>
    <tlLogic id="1169603101" type="actuated" programID="0" offset="0">
        <phase duration="20" state="grrrrrgGGGrrgrrrrrgGGGrr" minDur="10" maxDur="30"/>
        <phase duration="20" state="grrrrrgrrrGGgrrrrrgrrrGG" minDur="10" maxDur="30"/>
        <phase duration="20" state="gGGGrrgrrrrrgGGGrrgrrrrr" minDur="10" maxDur="30"/>
        <phase duration="20" state="grrrGGgrrrrrgrrrGGgrrrrr" minDur="10" maxDur="30"/>
    </tlLogic>
    <tlLogic id="1169604068" type="actuated" programID="0" offset="0">
        <phase duration="20" state="gggGGGrrrr" minDur="10" maxDur="30"/>
        <phase duration="20" state="gggrrrGGGG" minDur="10" maxDur="30"/>
    </tlLogic>
    <tlLogic id="1169604760" type="actuated" programID="0" offset="0">
        <phase duration="20" state="grrrrrgGGGrrgrrrrrgGGGrr" minDur="10" maxDur="30"/>
        <phase duration="20" state="grrrrrgrrrGGgrrrrrgrrrGG" minDur="10" maxDur="30"/>
        <phase duration="20" state="gGGGrrgrrrrrgGGGrrgrrrrr" minDur="10" maxDur="30"/>
        <phase duration="20" state="grrrGGgrrrrrgrrrGGgrrrrr" minDur="10" maxDur="30"/>
    </tlLogic>
    <tlLogic id="1169604908" type="actuated" programID="0" offset="0">
        <phase duration="20" state="gGGGrGGrrrrgrrr" minDur="10" maxDur="30"/>
        <phase duration="20" state="grrrGrrrGGGgrrr" minDur="10" maxDur="30"/>
        <phase duration="20" state="grrrrrrrrrrgGGG" minDur="10" maxDur="30"/>
    </tlLogic>
    <tlLogic id="1169605652" type="actuated" programID="0" offset="0">
        <phase duration="20" state="grrrrrgGGGrrgrrrrrgGGGrr" minDur="10" maxDur="30"/>
        <phase duration="20" state="grrrrrgrrrGGgrrrrrgrrrGG" minDur="10" maxDur="30"/>
        <phase duration="20" state="gGGGrrgrrrrrgGGGrrgrrrrr" minDur="10" maxDur="30"/>
        <phase duration="20" state="grrrGGgrrrrrgrrrGGgrrrrr" minDur="10" maxDur="30"/>
    </tlLogic>
    <tlLogic id="1169606076" type="actuated" programID="0" offset="0">
        <phase duration="20" state="gGGGrGGrrrrgrrr" minDur="10" maxDur="30"/>
        <phase duration="20" state="grrrGrrrGGGgrrr" minDur="10" maxDur="30"/>
        <phase duration="20" state="grrrrrrrrrrgGGG" minDur="10" maxDur="30"/>
    </tlLogic>
    <tlLogic id="1169606447" type="actuated" programID="0" offset="0">
        <phase duration="20" state="gGGGrGGrrrrgrrr" minDur="10" maxDur="30"/>
        <phase duration="20" state="grrrGrrrGGGgrrr" minDur="10" maxDur="30"/>
        <phase duration="20" state="grrrrrrrrrrgGGG" minDur="10" maxDur="30"/>
    </tlLogic>
    <tlLogic id="1169606980" type="actuated" programID="0" offset="0">
        <phase duration="20" state="gGGGrGGrrrrgrrr" minDur="10" maxDur="30"/>
        <phase duration="20" state="grrrGrrrGGGgrrr" minDur="10" maxDur="30"/>
        <phase duration="20" state="grrrrrrrrrrgGGG" minDur="10" maxDur="30"/>
    </tlLogic>
    <tlLogic id="1169607989" type="actuated" programID="0" offset="0">
        <phase duration="20" state="gggGGGrrrr" minDur="10" maxDur="30"/>
        <phase duration="20" state="gggrrrGGGG" minDur="10" maxDur="30"/>
    </tlLogic>
    <tlLogic id="1169608728" type="actuated" programID="0" offset="0">
        <phase duration="20" state="grrrrrgGGGrrgrrrrrgGGGrr" minDur="10" maxDur="30"/>
        <phase duration="20" state="grrrrrgrrrGGgrrrrrgrrrGG" minDur="10" maxDur="30"/>
        <phase duration="20" state="gGGGrrgrrrrrgGGGrrgrrrrr" minDur="10" maxDur="30"/>
        <phase duration="20" state="grrrGGgrrrrrgrrrGGgrrrrr" minDur="10" maxDur="30"/>
    </tlLogic>
    <tlLogic id="1169610097" type="actuated" programID="0" offset="0">
        <phase duration="20" state="grrrrrgGGGrrgrrrrrgGGGrr" minDur="10" maxDur="30"/>
        <phase duration="20" state="grrrrrgrrrGGgrrrrrgrrrGG" minDur="10" maxDur="30"/>
        <phase duration="20" state="gGGGrrgrrrrrgGGGrrgrrrrr" minDur="10" maxDur="30"/>
        <phase duration="20" state="grrrGGgrrrrrgrrrGGgrrrrr" minDur="10" maxDur="30"/>
    </tlLogic>
    <tlLogic id="1169610865" type="actuated" programID="0" offset="0">
        <phase duration="20" state="grrrrrgGGGrrgrrrrrgGGGrr" minDur="10" maxDur="30"/>
        <phase duration="20" state="grrrrrgrrrGGgrrrrrgrrrGG" minDur="10" maxDur="30"/>
        <phase duration="20" state="gGGGrrgrrrrrgGGGrrgrrrrr" minDur="10" maxDur="30"/>
        <phase duration="20" state="grrrGGgrrrrrgrrrGGgrrrrr" minDur="10" maxDur="30"/>
    </tlLogic>
    <tlLogic id="1169611007" type="actuated" programID="0" offset="0">
        <phase duration="20" state="grrrrrgGGGrrgrrrrrgGGGrr" minDur="10" maxDur="30"/>
        <phase duration="20" state="grrrrrgrrrGGgrrrrrgrrrGG" minDur="10" maxDur="30"/>
        <phase duration="20" state="gGGGrrgrrrrrgGGGrrgrrrrr" minDur="10" maxDur="30"/>
        <phase duration="20" state="grrrGGgrrrrrgrrrGGgrrrrr" minDur="10" maxDur="30"/>
    </tlLogic>
    <tlLogic id="1169611033" type="actuated" programID="0" offset="0">
        <phase duration="20" state="gGGGrGGrrrrgrrr" minDur="10" maxDur="30"/>
        <phase duration="20" state="grrrGrrrGGGgrrr" minDur="10" maxDur="30"/>
        <phase duration="20" state="grrrrrrrrrrgGGG" minDur="10" maxDur="30"/>
    </tlLogic>
    <tlLogic id="1169611879" type="actuated" programID="0" offset="0">
        <phase duration="20" state="gggGGGrrrr" minDur="10" maxDur="30"/>
        <phase duration="20" state="gggrrrGGGG" minDur="10" maxDur="30"/>
    </tlLogic>
    <tlLogic id="1169612986" type="actuated" programID="0" offset="0">
        <phase duration="20" state="grrrrrgGGGrrgrrrrrgGGGrr" minDur="10" maxDur="30"/>
        <phase duration="20" state="grrrrrgrrrGGgrrrrrgrrrGG" minDur="10" maxDur="30"/>
        <phase duration="20" state="gGGGrrgrrrrrgGGGrrgrrrrr" minDur="10" maxDur="30"/>
        <phase duration="20" state="grrrGGgrrrrrgrrrGGgrrrrr" minDur="10" maxDur="30"/>
    </tlLogic>
    <tlLogic id="1169613331" type="actuated" programID="0" offset="0">
        <phase duration="20" state="GGGrrrgrrrrrgrrrrgrGGGr" minDur="10" maxDur="30"/>
        <phase duration="20" state="rrrrGGgrrrrrgrrrrgrrrrG" minDur="10" maxDur="30"/>
        <phase duration="20" state="rrrrrrgGGrGGgrrrrgrrrrr" minDur="10" maxDur="30"/>
        <phase duration="20" state="rrrrrrgrrrrrgGGGGrrrrrr" minDur="10" maxDur="30"/>
    </tlLogic>
    <tlLogic id="1169614250" type="actuated" programID="0" offset="0">
        <phase duration="20" state="grrrrrgGGGrrgrrrrrgGGGrr" minDur="10" maxDur="30"/>
        <phase duration="20" state="grrrrrgrrrGGgrrrrrgrrrGG" minDur="10" maxDur="30"/>
        <phase duration="20" state="gGGGrrgrrrrrgGGGrrgrrrrr" minDur="10" maxDur="30"/>
        <phase duration="20" state="grrrGGgrrrrrgrrrGGgrrrrr" minDur="10" maxDur="30"/>
    </tlLogic>
    <tlLogic id="1169614297" type="actuated" programID="0" offset="0">
        <phase duration="20" state="grrrrrgGGGrrgrrrrrgGGGrr" minDur="10" maxDur="30"/>
        <phase duration="20" state="grrrrrgrrrGGgrrrrrgrrrGG" minDur="10" maxDur="30"/>
        <phase duration="20" state="gGGGrrgrrrrrgGGGrrgrrrrr" minDur="10" maxDur="30"/>
        <phase duration="20" state="grrrGGgrrrrrgrrrGGgrrrrr" minDur="10" maxDur="30"/>
    </tlLogic>
    <tlLogic id="1169614459" type="actuated" programID="0" offset="0">
        <phase duration="20" state="gGGGrGGrrrrgrrr" minDur="10" maxDur="30"/>
        <phase duration="20" state="grrrGrrrGGGgrrr" minDur="10" maxDur="30"/>
        <phase duration="20" state="grrrrrrrrrrgGGG" minDur="10" maxDur="30"/>
    </tlLogic>
    <tlLogic id="1169615139" type="actuated" programID="0" offset="0">
        <phase duration="20" state="grrrrrgGGGrrgrrrrrgGGGrr" minDur="10" maxDur="30"/>
        <phase duration="20" state="grrrrrgrrrGGgrrrrrgrrrGG" minDur="10" maxDur="30"/>
        <phase duration="20" state="gGGGrrgrrrrrgGGGrrgrrrrr" minDur="10" maxDur="30"/>
        <phase duration="20" state="grrrGGgrrrrrgrrrGGgrrrrr" minDur="10" maxDur="30"/>
    </tlLogic>
    <tlLogic id="1169615263" type="actuated" programID="0" offset="0">
        <phase duration="20" state="rgrrrrrgrrrrrrggGGGrrgrrrrrrgGGGrrr" minDur="10" maxDur="30"/>
        <phase duration="20" state="rgrrrrrgrrrrrrggrrrGGgrrrrrrgrrrGGG" minDur="10" maxDur="30"/>
        <phase duration="20" state="rgrrrrrgrGrGGrggrrrrrgGGGrrrgrrrrrr" minDur="10" maxDur="30"/>
        <phase duration="20" state="GgrGGGGgrrrrrrggrrrrrgrrrrrrgrrrrrr" minDur="10" maxDur="30"/>
        <phase duration="20" state="rgrrrrrgrrrGGGggrrrrrgrrrGGGgrrrrrr" minDur="10" maxDur="30"/>
    </tlLogic>
    <tlLogic id="1169615660" type="actuated" programID="0" offset="0">
        <phase duration="20" state="ggGGGrGGGrrrgrrrr" minDur="10" maxDur="30"/>
        <phase duration="20" state="ggrrrGrrrGGGgrrrr" minDur="10" maxDur="30"/>
        <phase duration="20" state="ggrrrrrrrrrrgGGGG" minDur="10" maxDur="30"/>
    </tlLogic>
    <tlLogic id="1169615903" type="actuated" programID="0" offset="0">
        <phase duration="20" state="GGGGGrrr" minDur="10" maxDur="30"/>
        <phase duration="20" state="rrrGGGGG" minDur="10" maxDur="30"/>
    </tlLogic>
    <tlLogic id="1169616525" type="actuated" programID="0" offset="0">
        <phase duration="20" state="grrrrrgGGGrrgrrrrrgGGGrr" minDur="10" maxDur="30"/>
        <phase duration="20" state="grrrrrgrrrGGgrrrrrgrrrGG" minDur="10" maxDur="30"/>
        <phase duration="20" state="gGGGrrgrrrrrgGGGrrgrrrrr" minDur="10" maxDur="30"/>
        <phase duration="20" state="grrrGGgrrrrrgrrrGGgrrrrr" minDur="10" maxDur="30"/>
    </tlLogic>
    <tlLogic id="1169617157" type="actuated" programID="0" offset="0">
        <phase duration="20" state="gGGGrGGrrrrgrrr" minDur="10" maxDur="30"/>
        <phase duration="20" state="grrrGrrrGGGgrrr" minDur="10" maxDur="30"/>
        <phase duration="20" state="grrrrrrrrrrgGGG" minDur="10" maxDur="30"/>
    </tlLogic>
    <tlLogic id="1930292722" type="actuated" programID="0" offset="0">
        <phase duration="20" state="gggGGGrrrr" minDur="10" maxDur="30"/>
        <phase duration="20" state="gggrrrGGGG" minDur="10" maxDur="30"/>
    </tlLogic>
    <tlLogic id="1932069326" type="actuated" programID="0" offset="0">
        <phase duration="20" state="gGGGrGGrrrrgrrr" minDur="10" maxDur="30"/>
        <phase duration="20" state="grrrGrrrGGGgrrr" minDur="10" maxDur="30"/>
        <phase duration="20" state="grrrrrrrrrrgGGG" minDur="10" maxDur="30"/>
    </tlLogic>
    <tlLogic id="1981117540" type="actuated" programID="0" offset="0">
        <phase duration="20" state="grrrrrgGGGrrgrrrrrgGGGrr" minDur="10" maxDur="30"/>
        <phase duration="20" state="grrrrrgrrrGGgrrrrrgrrrGG" minDur="10" maxDur="30"/>
        <phase duration="20" state="gGGGrrgrrrrrgGGGrrgrrrrr" minDur="10" maxDur="30"/>
        <phase duration="20" state="grrrGGgrrrrrgrrrGGgrrrrr" minDur="10" maxDur="30"/>
    </tlLogic>
    <tlLogic id="1981117542" type="actuated" programID="0" offset="0">
        <phase duration="20" state="gGGGrGGrrrrgrrr" minDur="10" maxDur="30"/>
        <phase duration="20" state="grrrGrrrGGGgrrr" minDur="10" maxDur="30"/>
        <phase duration="20" state="grrrrrrrrrrgGGG" minDur="10" maxDur="30"/>
    </tlLogic>
    <tlLogic id="1981117562" type="actuated" programID="0" offset="0">
        <phase duration="20" state="gGGGrGGrrrrgrrr" minDur="10" maxDur="30"/>
        <phase duration="20" state="grrrGrrrGGGgrrr" minDur="10" maxDur="30"/>
        <phase duration="20" state="grrrrrrrrrrgGGG" minDur="10" maxDur="30"/>
    </tlLogic>
    <tlLogic id="1981117566" type="actuated" programID="0" offset="0">
        <phase duration="20" state="gGGGrGGrrrrgrrr" minDur="10" maxDur="30"/>
        <phase duration="20" state="grrrGrrrGGGgrrr" minDur="10" maxDur="30"/>
        <phase duration="20" state="grrrrrrrrrrgGGG" minDur="10" maxDur="30"/>
    </tlLogic>
    <tlLogic id="1981117588" type="actuated" programID="0" offset="0">
        <phase duration="20" state="grrrrrgGGGrrgrrrrrgGGGrr" minDur="10" maxDur="30"/>
        <phase duration="20" state="grrrrrgrrrGGgrrrrrgrrrGG" minDur="10" maxDur="30"/>
        <phase duration="20" state="gGGGrrgrrrrrgGGGrrgrrrrr" minDur="10" maxDur="30"/>
        <phase duration="20" state="grrrGGgrrrrrgrrrGGgrrrrr" minDur="10" maxDur="30"/>
    </tlLogic>
    <tlLogic id="1981117597" type="actuated" programID="0" offset="0">
        <phase duration="20" state="gGGGrGGrrrrgrrr" minDur="10" maxDur="30"/>
        <phase duration="20" state="grrrGrrrGGGgrrr" minDur="10" maxDur="30"/>
        <phase duration="20" state="grrrrrrrrrrgGGG" minDur="10" maxDur="30"/>
    </tlLogic>
    <tlLogic id="1981117664" type="actuated" programID="0" offset="0">
        <phase duration="20" state="grrrrggGGGrGGGrrrgrrrr" minDur="10" maxDur="30"/>
        <phase duration="20" state="grrrrggrrrGrrrGGGgrrrr" minDur="10" maxDur="30"/>
        <phase duration="20" state="grrrrggrrrrrrrrrrgGGGG" minDur="10" maxDur="30"/>
        <phase duration="20" state="gGGGGggrrrrrrrrrrgrrrr" minDur="10" maxDur="30"/>
    </tlLogic>
    <tlLogic id="2132653170" type="actuated" programID="0" offset="0">
        <phase duration="60" state="grrrgGGGrgrrr" minDur="30" maxDur="90"/>
    </tlLogic>
    <tlLogic id="2132653183" type="actuated" programID="0" offset="0">
        <phase duration="60" state="grrrgGGGrgrrr" minDur="30" maxDur="90"/>
    </tlLogic>
    <tlLogic id="2132653196" type="actuated" programID="0" offset="0">
        <phase duration="20" state="gGGGrGGrrrrgrrr" minDur="10" maxDur="30"/>
        <phase duration="20" state="grrrGrrrGGGgrrr" minDur="10" maxDur="30"/>
        <phase duration="20" state="grrrrrrrrrrgGGG" minDur="10" maxDur="30"/>
    </tlLogic>
    <tlLogic id="2134332669" type="actuated" programID="0" offset="0">
        <phase duration="20" state="grrrrrgGGGrrgrrrrrgGGGrr" minDur="10" maxDur="30"/>
        <phase duration="20" state="grrrrrgrrrGGgrrrrrgrrrGG" minDur="10" maxDur="30"/>
        <phase duration="20" state="gGGGrrgrrrrrgGGGrrgrrrrr" minDur="10" maxDur="30"/>
        <phase duration="20" state="grrrGGgrrrrrgrrrGGgrrrrr" minDur="10" maxDur="30"/>
    </tlLogic>
    <tlLogic id="2134332670" type="actuated" programID="0" offset="0">
        <phase duration="20" state="gGGGrGGrrrrgrrr" minDur="10" maxDur="30"/>
        <phase duration="20" state="grrrGrrrGGGgrrr" minDur="10" maxDur="30"/>
        <phase duration="20" state="grrrrrrrrrrgGGG" minDur="10" maxDur="30"/>
    </tlLogic>
    <tlLogic id="2134349115" type="actuated" programID="0" offset="0">
        <phase duration="20" state="gGGGrGGrrrrgrrr" minDur="10" maxDur="30"/>
        <phase duration="20" state="grrrGrrrGGGgrrr" minDur="10" maxDur="30"/>
        <phase duration="20" state="grrrrrrrrrrgGGG" minDur="10" maxDur="30"/>
    </tlLogic>
    <tlLogic id="2134349127" type="actuated" programID="0" offset="0">
        <phase duration="20" state="grrrrrgGGGrrgrrrrrgGGGrr" minDur="10" maxDur="30"/>
        <phase duration="20" state="grrrrrgrrrGGgrrrrrgrrrGG" minDur="10" maxDur="30"/>
        <phase duration="20" state="gGGGrrgrrrrrgGGGrrgrrrrr" minDur="10" maxDur="30"/>
        <phase duration="20" state="grrrGGgrrrrrgrrrGGgrrrrr" minDur="10" maxDur="30"/>
    </tlLogic>
    <tlLogic id="2134349144" type="actuated" programID="0" offset="0">
        <phase duration="20" state="gGGGrGGrrrrgrrr" minDur="10" maxDur="30"/>
        <phase duration="20" state="grrrGrrrGGGgrrr" minDur="10" maxDur="30"/>
        <phase duration="20" state="grrrrrrrrrrgGGG" minDur="10" maxDur="30"/>
    </tlLogic>
    <tlLogic id="2134349146" type="actuated" programID="0" offset="0">
        <phase duration="20" state="gGGGrGGrrrrgrrr" minDur="10" maxDur="30"/>
        <phase duration="20" state="grrrGrrrGGGgrrr" minDur="10" maxDur="30"/>
        <phase duration="20" state="grrrrrrrrrrgGGG" minDur="10" maxDur="30"/>
    </tlLogic>
    <tlLogic id="2134349170" type="actuated" programID="0" offset="0">
        <phase duration="20" state="gGGGrGGrrrrgrrr" minDur="10" maxDur="30"/>
        <phase duration="20" state="grrrGrrrGGGgrrr" minDur="10" maxDur="30"/>
        <phase duration="20" state="grrrrrrrrrrgGGG" minDur="10" maxDur="30"/>
    </tlLogic>
    <tlLogic id="2134349189" type="actuated" programID="0" offset="0">
        <phase duration="20" state="grrrrrgGGGrrgrrrrrgGGGrr" minDur="10" maxDur="30"/>
        <phase duration="20" state="grrrrrgrrrGGgrrrrrgrrrGG" minDur="10" maxDur="30"/>
        <phase duration="20" state="gGGGrrgrrrrrgGGGrrgrrrrr" minDur="10" maxDur="30"/>
        <phase duration="20" state="grrrGGgrrrrrgrrrGGgrrrrr" minDur="10" maxDur="30"/>
    </tlLogic>
    <tlLogic id="2134349193" type="actuated" programID="0" offset="0">
        <phase duration="20" state="gGGGrGGrrrrgrrr" minDur="10" maxDur="30"/>
        <phase duration="20" state="grrrGrrrGGGgrrr" minDur="10" maxDur="30"/>
        <phase duration="20" state="grrrrrrrrrrgGGG" minDur="10" maxDur="30"/>
    </tlLogic>
    <tlLogic id="2184512077" type="actuated" programID="0" offset="0">
        <phase duration="20" state="gGGGrGGrrrrgrrr" minDur="10" maxDur="30"/>
        <phase duration="20" state="grrrGrrrGGGgrrr" minDur="10" maxDur="30"/>
        <phase duration="20" state="grrrrrrrrrrgGGG" minDur="10" maxDur="30"/>
    </tlLogic>
    <tlLogic id="2353209645" type="actuated" programID="0" offset="0">
        <phase duration="20" state="grrrrrgGGGrrgrrrrrgGGGrr" minDur="10" maxDur="30"/>
        <phase duration="20" state="grrrrrgrrrGGgrrrrrgrrrGG" minDur="10" maxDur="30"/>
        <phase duration="20" state="gGGGrrgrrrrrgGGGrrgrrrrr" minDur="10" maxDur="30"/>
        <phase duration="20" state="grrrGGgrrrrrgrrrGGgrrrrr" minDur="10" maxDur="30"/>
    </tlLogic>
    <tlLogic id="2353209652" type="actuated" programID="0" offset="0">
        <phase duration="20" state="gGGGrGGrrrrgrrr" minDur="10" maxDur="30"/>
        <phase duration="20" state="grrrGrrrGGGgrrr" minDur="10" maxDur="30"/>
        <phase duration="20" state="grrrrrrrrrrgGGG" minDur="10" maxDur="30"/>
    </tlLogic>
    <tlLogic id="2353239930" type="actuated" programID="0" offset="0">
        <phase duration="20" state="gGGGrGGrrrrgrrr" minDur="10" maxDur="30"/>
        <phase duration="20" state="grrrGrrrGGGgrrr" minDur="10" maxDur="30"/>
        <phase duration="20" state="grrrrrrrrrrgGGG" minDur="10" maxDur="30"/>
    </tlLogic>
    <tlLogic id="2353239938" type="actuated" programID="0" offset="0">
        <phase duration="20" state="gGGGrGGrrrrgrrr" minDur="10" maxDur="30"/>
        <phase duration="20" state="grrrGrrrGGGgrrr" minDur="10" maxDur="30"/>
        <phase duration="20" state="grrrrrrrrrrgGGG" minDur="10" maxDur="30"/>
    </tlLogic>
    <tlLogic id="2353239964" type="actuated" programID="0" offset="0">
        <phase duration="20" state="gGGGrGGrrrrgrrr" minDur="10" maxDur="30"/>
        <phase duration="20" state="grrrGrrrGGGgrrr" minDur="10" maxDur="30"/>
        <phase duration="20" state="grrrrrrrrrrgGGG" minDur="10" maxDur="30"/>
    </tlLogic>
    <tlLogic id="2464842803" type="actuated" programID="0" offset="0">
        <phase duration="20" state="gGGGrGGrrrrgrrr" minDur="10" maxDur="30"/>
        <phase duration="20" state="grrrGrrrGGGgrrr" minDur="10" maxDur="30"/>
        <phase duration="20" state="grrrrrrrrrrgGGG" minDur="10" maxDur="30"/>
    </tlLogic>
    <tlLogic id="2468430910" type="actuated" programID="0" offset="0">
        <phase duration="20" state="GGGrrr" minDur="10" maxDur="30"/>
        <phase duration="20" state="rrrGGG" minDur="10" maxDur="30"/>
    </tlLogic>
    <tlLogic id="2468449719" type="actuated" programID="0" offset="0">
        <phase duration="20" state="grrrrrgGGGrrgrrrrrgGGGrr" minDur="10" maxDur="30"/>
        <phase duration="20" state="grrrrrgrrrGGgrrrrrgrrrGG" minDur="10" maxDur="30"/>
        <phase duration="20" state="gGGGrrgrrrrrgGGGrrgrrrrr" minDur="10" maxDur="30"/>
        <phase duration="20" state="grrrGGgrrrrrgrrrGGgrrrrr" minDur="10" maxDur="30"/>
    </tlLogic>
    <tlLogic id="2471015812" type="actuated" programID="0" offset="0">
        <phase duration="20" state="gGGGrGGrrrrgrrr" minDur="10" maxDur="30"/>
        <phase duration="20" state="grrrGrrrGGGgrrr" minDur="10" maxDur="30"/>
        <phase duration="20" state="grrrrrrrrrrgGGG" minDur="10" maxDur="30"/>
    </tlLogic>
    <tlLogic id="2471015844" type="actuated" programID="0" offset="0">
        <phase duration="20" state="gGGGrGGrrrrgrrr" minDur="10" maxDur="30"/>
        <phase duration="20" state="grrrGrrrGGGgrrr" minDur="10" maxDur="30"/>
        <phase duration="20" state="grrrrrrrrrrgGGG" minDur="10" maxDur="30"/>
    </tlLogic>
    <tlLogic id="2471019512" type="actuated" programID="0" offset="0">
        <phase duration="20" state="gGGGrGGrrrrgrrr" minDur="10" maxDur="30"/>
        <phase duration="20" state="grrrGrrrGGGgrrr" minDur="10" maxDur="30"/>
        <phase duration="20" state="grrrrrrrrrrgGGG" minDur="10" maxDur="30"/>
    </tlLogic>
    <tlLogic id="2471019516" type="actuated" programID="0" offset="0">
        <phase duration="20" state="grrrrrgGGGrrgrrrrrgGGGrr" minDur="10" maxDur="30"/>
        <phase duration="20" state="grrrrrgrrrGGgrrrrrgrrrGG" minDur="10" maxDur="30"/>
        <phase duration="20" state="gGGGrrgrrrrrgGGGrrgrrrrr" minDur="10" maxDur="30"/>
        <phase duration="20" state="grrrGGgrrrrrgrrrGGgrrrrr" minDur="10" maxDur="30"/>
    </tlLogic>
    <tlLogic id="2471019525" type="actuated" programID="0" offset="0">
        <phase duration="20" state="gGGGrGGrrrrgrrr" minDur="10" maxDur="30"/>
        <phase duration="20" state="grrrGrrrGGGgrrr" minDur="10" maxDur="30"/>
        <phase duration="20" state="grrrrrrrrrrgGGG" minDur="10" maxDur="30"/>
    </tlLogic>
    <tlLogic id="2471735045" type="actuated" programID="0" offset="0">
        <phase duration="20" state="grrrrrgGGGrrgrrrrrgGGGrr" minDur="10" maxDur="30"/>
        <phase duration="20" state="grrrrrgrrrGGgrrrrrgrrrGG" minDur="10" maxDur="30"/>
        <phase duration="20" state="gGGGrrgrrrrrgGGGrrgrrrrr" minDur="10" maxDur="30"/>
        <phase duration="20" state="grrrGGgrrrrrgrrrGGgrrrrr" minDur="10" maxDur="30"/>
    </tlLogic>
    <tlLogic id="2471735049" type="actuated" programID="0" offset="0">
        <phase duration="20" state="grrrrrgGGGrrgrrrrrgGGGrr" minDur="10" maxDur="30"/>
        <phase duration="20" state="grrrrrgrrrGGgrrrrrgrrrGG" minDur="10" maxDur="30"/>
        <phase duration="20" state="gGGGrrgrrrrrgGGGrrgrrrrr" minDur="10" maxDur="30"/>
        <phase duration="20" state="grrrGGgrrrrrgrrrGGgrrrrr" minDur="10" maxDur="30"/>
    </tlLogic>