<?xml version="1.0" encoding="UTF-8"?>

<!-- generated on Thu Oct 31 16:38:32 2019 by Eclipse SUMO netconvert Version 1.2.0
<configuration xmlns:xsi="http://www.w3.org/2001/XMLSchema-instance" xsi:noNamespaceSchemaLocation="http://sumo.dlr.de/xsd/netconvertConfiguration.xsd">

    <input>
        <sumo-net-file value="/Users/zhuliwen/Downloads/福田区和宝安区路网/FuTian/FuTian.net.xml"/>
    </input>

    <output>
        <plain-output-prefix value="FuTian"/>
        <output.street-names value="true"/>
    </output>

    <projection>
        <proj.plain-geo value="true"/>
    </projection>

    <processing>
        <geometry.max-grade.fix value="false"/>
        <offset.disable-normalization value="true"/>
        <lefthand value="false"/>
    </processing>

    <junctions>
        <no-turnarounds value="true"/>
        <junctions.corner-detail value="5"/>
        <junctions.limit-turn-speed value="5.5"/>
        <rectangular-lane-cut value="false"/>
    </junctions>

    <pedestrian>
        <walkingareas value="false"/>
    </pedestrian>

</configuration>
-->

<edges version="1.1" xmlns:xsi="http://www.w3.org/2001/XMLSchema-instance" xsi:noNamespaceSchemaLocation="http://sumo.dlr.de/xsd/edges_file.xsd">
    <edge id="-135913024#0" from="1491845466" to="5269888300" priority="4" type="highway.unclassified" numLanes="3" speed="13.89" shape="114.043672,22.537533 114.043766,22.537646 114.043811,22.537745 114.043834,22.537804 114.043852,22.537877 114.043863,22.538032" disallow="tram rail_urban rail rail_electric ship">
        <lane index="0">
            <param key="origId" value="135913024"/>
        </lane>
        <lane index="1">
            <param key="origId" value="135913024"/>
        </lane>
        <lane index="2">
            <param key="origId" value="135913024"/>
        </lane>
    </edge>
    <edge id="-135913024#1" from="1491845427" to="1491845466" priority="4" type="highway.unclassified" numLanes="3" speed="13.89" shape="114.043913,22.534646 114.043904,22.535404 114.043888,22.535548 114.043844,22.535670 114.043303,22.536496 114.043237,22.536649 114.043203,22.536786 114.043212,22.536926 114.043234,22.537049 114.043316,22.537201 114.043418,22.537317 114.043540,22.537414 114.043672,22.537533" disallow="tram rail_urban rail rail_electric ship">
        <lane index="0">
            <param key="origId" value="135913024"/>
        </lane>
        <lane index="1">
            <param key="origId" value="135913024"/>
        </lane>
        <lane index="2">
            <param key="origId" value="135913024"/>
        </lane>
    </edge>
    <edge id="-135913032#0" from="2524033266" to="5269888300" priority="3" type="highway.residential" numLanes="3" speed="13.89" shape="114.043625,22.539464 114.043617,22.538833 114.043625,22.538738 114.043646,22.538632 114.043674,22.538524 114.043863,22.538032" disallow="tram rail_urban rail rail_electric ship">
        <lane index="0">
            <param key="origId" value="135913032"/>
        </lane>
        <lane index="1">
            <param key="origId" value="135913032"/>
        </lane>
        <lane index="2">
            <param key="origId" value="135913032"/>
        </lane>
    </edge>
    <edge id="-135913032#1" from="2533160058" to="2524033266" priority="3" type="highway.residential" numLanes="3" speed="13.89" disallow="tram rail_urban rail rail_electric ship">
        <lane index="0">
            <param key="origId" value="135913032"/>
        </lane>
        <lane index="1">
            <param key="origId" value="135913032"/>
        </lane>
        <lane index="2">
            <param key="origId" value="135913032"/>
        </lane>
    </edge>
    <edge id="-135913032#2" from="cluster_2502802085_2525927815" to="2533160058" priority="3" type="highway.residential" numLanes="3" speed="13.89" shape="114.043616,22.540191 114.043618,22.540044 114.043622,22.539798" disallow="tram rail_urban rail rail_electric ship">
        <lane index="0">
            <param key="origId" value="135913032"/>
        </lane>
        <lane index="1">
            <param key="origId" value="135913032"/>
        </lane>
        <lane index="2">
            <param key="origId" value="135913032"/>
        </lane>
        <param key="origFrom" value="2502802085"/>
    </edge>
    <edge id="-135913032#3" from="2502802110" to="cluster_2502802085_2525927815" priority="3" type="highway.residential" numLanes="3" speed="13.89" shape="114.043570,22.540376 114.043598,22.540296 114.043616,22.540191" disallow="tram rail_urban rail rail_electric ship">
        <lane index="0">
            <param key="origId" value="135913032"/>
        </lane>
        <lane index="1">
            <param key="origId" value="135913032"/>
        </lane>
        <lane index="2">
            <param key="origId" value="135913032"/>
        </lane>
        <param key="origTo" value="2502802085"/>
    </edge>
    <edge id="-135913032#4" from="2502802176" to="2502802110" priority="3" type="highway.residential" numLanes="3" speed="13.89" disallow="tram rail_urban rail rail_electric ship">
        <lane index="0">
            <param key="origId" value="135913032"/>
        </lane>
        <lane index="1">
            <param key="origId" value="135913032"/>
        </lane>
        <lane index="2">
            <param key="origId" value="135913032"/>
        </lane>
    </edge>
    <edge id="-135913032#5" from="2502802214" to="2502802176" priority="3" type="highway.residential" numLanes="3" speed="13.89" shape="114.042984,22.541181 114.043044,22.541124 114.043129,22.541046 114.043174,22.540977 114.043210,22.540917" disallow="tram rail_urban rail rail_electric ship">
        <lane index="0">
            <param key="origId" value="135913032"/>
        </lane>
        <lane index="1">
            <param key="origId" value="135913032"/>
        </lane>
        <lane index="2">
            <param key="origId" value="135913032"/>
        </lane>
    </edge>
    <edge id="-135913032#6" from="2502802226" to="2502802214" priority="3" type="highway.residential" numLanes="3" speed="13.89" disallow="tram rail_urban rail rail_electric ship">
        <lane index="0">
            <param key="origId" value="135913032"/>
        </lane>
        <lane index="1">
            <param key="origId" value="135913032"/>
        </lane>
        <lane index="2">
            <param key="origId" value="135913032"/>
        </lane>
    </edge>
    <edge id="-135913032#7" from="2502802246" to="2502802226" priority="3" type="highway.residential" numLanes="3" speed="13.89" disallow="tram rail_urban rail rail_electric ship">
        <lane index="0">
            <param key="origId" value="135913032"/>
        </lane>
        <lane index="1">
            <param key="origId" value="135913032"/>
        </lane>
        <lane index="2">
            <param key="origId" value="135913032"/>
        </lane>
    </edge>
    <edge id="-135913032#8" from="2528082698" to="2502802246" priority="3" type="highway.residential" numLanes="3" speed="13.89" shape="114.041847,22.541672 114.042059,22.541602 114.042191,22.541575 114.042347,22.541559 114.042601,22.541555 114.042649,22.541530 114.042684,22.541488 114.042735,22.541419" disallow="tram rail_urban rail rail_electric ship">
        <lane index="0">
            <param key="origId" value="135913032"/>
        </lane>
        <lane index="1">
            <param key="origId" value="135913032"/>
        </lane>
        <lane index="2">
            <param key="origId" value="135913032"/>
        </lane>
    </edge>
    <edge id="-135913032#9" from="1491845601" to="2528082698" priority="3" type="highway.residential" numLanes="3" speed="13.89" shape="114.041101,22.542086 114.041096,22.541990 114.041104,22.541937 114.041126,22.541902 114.041165,22.541864 114.041252,22.541839 114.041296,22.541828 114.041561,22.541761 114.041798,22.541688 114.041847,22.541672" disallow="tram rail_urban rail rail_electric ship">
        <lane index="0">
            <param key="origId" value="135913032"/>
        </lane>
        <lane index="1">
            <param key="origId" value="135913032"/>
        </lane>
        <lane index="2">
            <param key="origId" value="135913032"/>
        </lane>
    </edge>
    <edge id="-135913041#0" from="2042400915" to="2042400913" name="?" priority="3" type="highway.residential" numLanes="3" speed="13.89" shape="114.037230,22.529385 114.035086,22.529156 114.035195,22.527948 114.035199,22.527850 114.035195,22.527734" disallow="tram rail_urban rail rail_electric ship">
        <lane index="0">
            <param key="origId" value="135913041 684241523"/>
        </lane>
        <lane index="1">
            <param key="origId" value="135913041 684241523"/>
        </lane>
        <lane index="2">
            <param key="origId" value="135913041 684241523"/>
        </lane>
    </edge>
    <edge id="-135913041#1" from="1491845092" to="2042400915" name="?" priority="3" type="highway.residential" numLanes="3" speed="13.89" disallow="tram rail_urban rail rail_electric ship">
        <lane index="0">
            <param key="origId" value="135913041"/>
        </lane>
        <lane index="1">
            <param key="origId" value="135913041"/>
        </lane>
        <lane index="2">
            <param key="origId" value="135913041"/>
        </lane>
    </edge>
    <edge id="-135913041#2" from="cluster_1491845096_4981907891" to="1491845092" name="?" priority="3" type="highway.residential" numLanes="3" speed="13.89" shape="114.040353,22.529725 114.038313,22.529500" disallow="tram rail_urban rail rail_electric ship">
        <lane index="0">
            <param key="origId" value="135913041"/>
        </lane>
        <lane index="1">
            <param key="origId" value="135913041"/>
        </lane>
        <lane index="2">
            <param key="origId" value="135913041"/>
        </lane>
        <param key="origFrom" value="1491845096"/>
    </edge>
    <edge id="-135913041#4" from="1491845101" to="cluster_1491845096_4981907891" name="?" priority="3" type="highway.residential" numLanes="3" speed="13.89" shape="114.040883,22.529841 114.040525,22.529758" disallow="tram rail_urban rail rail_electric ship">
        <lane index="0">
            <param key="origId" value="135913041"/>
        </lane>
        <lane index="1">
            <param key="origId" value="135913041"/>
        </lane>
        <lane index="2">
            <param key="origId" value="135913041"/>
        </lane>
        <param key="origTo" value="4981907891"/>
    </edge>
    <edge id="-135913046#0" from="2042407645" to="498877620" name="新洲二街" priority="3" type="highway.residential" numLanes="3" speed="13.89" disallow="tram rail_urban rail rail_electric ship">
        <lane index="0">
            <param key="origId" value="135913046"/>
        </lane>
        <lane index="1">
            <param key="origId" value="135913046"/>
        </lane>
        <lane index="2">
            <param key="origId" value="135913046"/>
        </lane>
    </edge>
    <edge id="-135913046#1" from="cluster_2042407638_3653137211" to="2042407645" name="新洲二街" priority="3" type="highway.residential" numLanes="3" speed="13.89" shape="114.041583,22.524776 114.041601,22.524669 114.041601,22.524537 114.041568,22.524395 114.041375,22.523975 114.041190,22.523605" disallow="tram rail_urban rail rail_electric ship">
        <lane index="0">
            <param key="origId" value="135913046"/>
        </lane>
        <lane index="1">
            <param key="origId" value="135913046"/>
        </lane>
        <lane index="2">
            <param key="origId" value="135913046"/>
        </lane>
        <param key="origFrom" value="3653137211"/>
    </edge>
    <edge id="-135913046#3" from="2042441665" to="cluster_2042407638_3653137211" name="新洲二街" priority="3" type="highway.residential" numLanes="3" speed="13.89" shape="114.041340,22.526152 114.041556,22.524951" disallow="tram rail_urban rail rail_electric ship">
        <lane index="0">
            <param key="origId" value="135913046"/>
        </lane>
        <lane index="1">
            <param key="origId" value="135913046"/>
        </lane>
        <lane index="2">
            <param key="origId" value="135913046"/>
        </lane>
        <param key="origTo" value="2042407638"/>
    </edge>
    <edge id="-135913046#4" from="310170187" to="2042441665" name="新洲二街" priority="3" type="highway.residential" numLanes="3" speed="13.89" shape="114.040866,22.527161 114.041267,22.526328 114.041311,22.526234 114.041340,22.526152" disallow="tram rail_urban rail rail_electric ship">
        <lane index="0">
            <param key="origId" value="135913046"/>
        </lane>
        <lane index="1">
            <param key="origId" value="135913046"/>
        </lane>
        <lane index="2">
            <param key="origId" value="135913046"/>
        </lane>
    </edge>
    <edge id="-135913046#5" from="cluster_1491845096_4981907891" to="310170187" name="新洲二街" priority="3" type="highway.residential" numLanes="3" speed="13.89" shape="114.040353,22.529725 114.040776,22.527463 114.040812,22.527317 114.040866,22.527161" disallow="tram rail_urban rail rail_electric ship">
        <lane index="0">
            <param key="origId" value="135913046"/>
        </lane>
        <lane index="1">
            <param key="origId" value="135913046"/>
        </lane>
        <lane index="2">
            <param key="origId" value="135913046"/>
        </lane>
        <param key="origFrom" value="1491845096"/>
    </edge>
    <edge id="-135913054" from="1491845101" to="1491845063" priority="3" type="highway.residential" numLanes="3" speed="13.89" shape="114.040883,22.529841 114.041196,22.529276 114.041917,22.528317 114.041996,22.528317 114.042391,22.527334" disallow="tram rail_urban rail rail_electric ship">
        <lane index="0">
            <param key="origId" value="135913054"/>
        </lane>
        <lane index="1">
            <param key="origId" value="135913054"/>
        </lane>
        <lane index="2">
            <param key="origId" value="135913054"/>
        </lane>
    </edge>
    <edge id="-135913055" from="1491845212" to="1116469224" priority="3" type="highway.residential" numLanes="3" speed="13.89" shape="114.041916,22.530650 114.042594,22.530758 114.042626,22.530683 114.042671,22.530216 114.042654,22.530183 114.042080,22.530079" disallow="tram rail_urban rail rail_electric ship">
        <lane index="0">
            <param key="origId" value="135913055"/>
        </lane>
        <lane index="1">
            <param key="origId" value="135913055"/>
        </lane>
        <lane index="2">
            <param key="origId" value="135913055"/>
        </lane>
    </edge>
    <edge id="-158109820#0" from="2042191619" to="2042191611" priority="3" type="highway.residential" numLanes="3" speed="5.56" shape="114.066047,22.551510 114.066024,22.551354 114.065985,22.551248" disallow="tram rail_urban rail rail_electric ship">
        <lane index="0">
            <param key="origId" value="158109820"/>
        </lane>
        <lane index="1">
            <param key="origId" value="158109820"/>
        </lane>
        <lane index="2">
            <param key="origId" value="158109820"/>
        </lane>
    </edge>
    <edge id="-158109820#1" from="1703698705" to="2042191619" priority="3" type="highway.residential" numLanes="3" speed="5.56" disallow="tram rail_urban rail rail_electric ship">
        <lane index="0">
            <param key="origId" value="158109820"/>
        </lane>
        <lane index="1">
            <param key="origId" value="158109820"/>
        </lane>
        <lane index="2">
            <param key="origId" value="158109820"/>
        </lane>
    </edge>
    <edge id="-158112572#0" from="1703725326" to="2042184673" priority="3" type="highway.residential" numLanes="3" speed="13.89" disallow="tram rail_urban rail rail_electric ship">
        <lane index="0">
            <param key="origId" value="158112572"/>
        </lane>
        <lane index="1">
            <param key="origId" value="158112572"/>
        </lane>
        <lane index="2">
            <param key="origId" value="158112572"/>
        </lane>
    </edge>
    <edge id="-158112572#1" from="2889067761" to="1703725326" priority="3" type="highway.residential" numLanes="3" speed="13.89" shape="114.065973,22.554470 114.065855,22.554469 114.065423,22.554461" disallow="tram rail_urban rail rail_electric ship">
        <lane index="0">
            <param key="origId" value="158112572"/>
        </lane>
        <lane index="1">
            <param key="origId" value="158112572"/>
        </lane>
        <lane index="2">
            <param key="origId" value="158112572"/>
        </lane>
    </edge>
    <edge id="-166998768#0" from="1783922693" to="1783922850" name="水围七街" priority="3" type="highway.residential" numLanes="3" speed="13.89" shape="114.057809,22.520705 114.057802,22.520881 114.057714,22.521327 114.057692,22.521402 114.057418,22.522326 114.057363,22.522511 114.057407,22.522596 114.057417,22.522719 114.057406,22.522882 114.057352,22.523682" disallow="tram rail_urban rail rail_electric ship">
        <lane index="0">
            <param key="origId" value="166998768"/>
        </lane>
        <lane index="1">
            <param key="origId" value="166998768"/>
        </lane>
        <lane index="2">
            <param key="origId" value="166998768"/>
        </lane>
    </edge>
    <edge id="-166998768#1" from="1783922648" to="1783922693" name="水围七街" priority="3" type="highway.residential" numLanes="3" speed="13.89" disallow="tram rail_urban rail rail_electric ship">
        <lane index="0">
            <param key="origId" value="166998768"/>
        </lane>
        <lane index="1">
            <param key="origId" value="166998768"/>
        </lane>
        <lane index="2">
            <param key="origId" value="166998768"/>
        </lane>
    </edge>
    <edge id="-166998770#0" from="1783922854" to="1783922852" name="水围街" priority="3" type="highway.residential" numLanes="3" speed="13.89" disallow="tram rail_urban rail rail_electric ship">
        <lane index="0">
            <param key="origId" value="166998770"/>
        </lane>
        <lane index="1">
            <param key="origId" value="166998770"/>
        </lane>
        <lane index="2">
            <param key="origId" value="166998770"/>
        </lane>
    </edge>
    <edge id="-166998770#1" from="1783922850" to="1783922854" name="水围街" priority="3" type="highway.residential" numLanes="3" speed="13.89" disallow="tram rail_urban rail rail_electric ship">
        <lane index="0">
            <param key="origId" value="166998770"/>
        </lane>
        <lane index="1">
            <param key="origId" value="166998770"/>
        </lane>
        <lane index="2">
            <param key="origId" value="166998770"/>
        </lane>
    </edge>
    <edge id="-166998770#2" from="2268752856" to="1783922850" name="水围街" priority="3" type="highway.residential" numLanes="3" speed="13.89" disallow="tram rail_urban rail rail_electric ship">
        <lane index="0">
            <param key="origId" value="166998770"/>
        </lane>
        <lane index="1">
            <param key="origId" value="166998770"/>
        </lane>
        <lane index="2">
            <param key="origId" value="166998770"/>
        </lane>
    </edge>
    <edge id="-166998770#3" from="1783922848" to="2268752856" name="水围街" priority="3" type="highway.residential" numLanes="3" speed="13.89" disallow="tram rail_urban rail rail_electric ship">
        <lane index="0">
            <param key="origId" value="166998770"/>
        </lane>
        <lane index="1">
            <param key="origId" value="166998770"/>
        </lane>
        <lane index="2">
            <param key="origId" value="166998770"/>
        </lane>
    </edge>
    <edge id="-166998770#4" from="1783922846" to="1783922848" name="水围街" priority="3" type="highway.residential" numLanes="3" speed="13.89" disallow="tram rail_urban rail rail_electric ship">
        <lane index="0">
            <param key="origId" value="166998770"/>
        </lane>
        <lane index="1">
            <param key="origId" value="166998770"/>
        </lane>
        <lane index="2">
            <param key="origId" value="166998770"/>
        </lane>
    </edge>
    <edge id="-166998770#5" from="1783922835" to="1783922846" name="水围街" priority="3" type="highway.residential" numLanes="3" speed="13.89" shape="114.059325,22.523578 114.059047,22.523569 114.058701,22.523595 114.058521,22.523654" disallow="tram rail_urban rail rail_electric ship">
        <lane index="0">
            <param key="origId" value="166998770"/>
        </lane>
        <lane index="1">
            <param key="origId" value="166998770"/>
        </lane>
        <lane index="2">
            <param key="origId" value="166998770"/>
        </lane>
    </edge>
    <edge id="-166998770#6" from="cluster_1783922843_1783922845" to="1783922835" name="水围街" priority="3" type="highway.residential" numLanes="3" speed="13.89" shape="114.060244,22.523606 114.059408,22.523580 114.059325,22.523578" disallow="tram rail_urban rail rail_electric ship">
        <lane index="0">
            <param key="origId" value="166998770"/>
        </lane>
        <lane index="1">
            <param key="origId" value="166998770"/>
        </lane>
        <lane index="2">
            <param key="origId" value="166998770"/>
        </lane>
        <param key="origFrom" value="1783922843"/>
    </edge>
    <edge id="-166998795" from="1783922854" to="2530287133" name="水围九街" priority="3" type="highway.residential" numLanes="3" speed="13.89" shape="114.057039,22.523690 114.057019,22.524863 114.057230,22.525832" disallow="tram rail_urban rail rail_electric ship">
        <lane index="0">
            <param key="origId" value="166998795"/>
        </lane>
        <lane index="1">
            <param key="origId" value="166998795"/>
        </lane>
        <lane index="2">
            <param key="origId" value="166998795"/>
        </lane>
    </edge>
    <edge id="-166998804" from="1783922835" to="1783922878" priority="3" type="highway.residential" numLanes="3" speed="13.89" shape="114.059325,22.523578 114.059021,22.524555 114.058934,22.525181 114.058454,22.525120" disallow="tram rail_urban rail rail_electric ship">
        <lane index="0">
            <param key="origId" value="166998804"/>
        </lane>
        <lane index="1">
            <param key="origId" value="166998804"/>
        </lane>
        <lane index="2">
            <param key="origId" value="166998804"/>
        </lane>
    </edge>
    <edge id="-166998814" from="1783922705" to="1783922848" name="水围五街" priority="3" type="highway.residential" numLanes="3" speed="13.89" shape="114.058396,22.520991 114.058416,22.522117 114.058346,22.522317 114.058214,22.522829 114.057999,22.523666" disallow="tram rail_urban rail rail_electric ship">
        <lane index="0">
            <param key="origId" value="166998814"/>
        </lane>
        <lane index="1">
            <param key="origId" value="166998814"/>
        </lane>
        <lane index="2">
            <param key="origId" value="166998814"/>
        </lane>
    </edge>
    <edge id="-170144294#0" from="1842898699" to="503465963" priority="1" type="highway.service" numLanes="3" speed="5.56" allow="delivery bicycle pedestrian">
        <lane index="0">
            <param key="origId" value="170144294"/>
        </lane>
        <lane index="1">
            <param key="origId" value="170144294"/>
        </lane>
        <lane index="2">
            <param key="origId" value="170144294"/>
        </lane>
    </edge>
    <edge id="-170144294#1" from="5374861155" to="1842898699" priority="1" type="highway.service" numLanes="3" speed="5.56" shape="114.058608,22.551756 114.058615,22.551717 114.058618,22.551578" allow="delivery bicycle pedestrian">
        <lane index="0">
            <param key="origId" value="170144294"/>
        </lane>
        <lane index="1">
            <param key="origId" value="170144294"/>
        </lane>
        <lane index="2">
            <param key="origId" value="170144294"/>
        </lane>
    </edge>
    <edge id="-170144294#2" from="1812925762" to="5374861155" priority="1" type="highway.service" numLanes="3" speed="5.56" shape="114.058448,22.552576 114.058455,22.552018 114.058465,22.551961 114.058495,22.551917 114.058548,22.551861 114.058572,22.551830 114.058591,22.551795 114.058608,22.551756" allow="delivery bicycle pedestrian">
        <lane index="0">
            <param key="origId" value="170144294"/>
        </lane>
        <lane index="1">
            <param key="origId" value="170144294"/>
        </lane>
        <lane index="2">
            <param key="origId" value="170144294"/>
        </lane>
    </edge>
    <edge id="-170144294#3" from="5834110730" to="1812925762" priority="1" type="highway.service" numLanes="3" speed="5.56" allow="delivery bicycle pedestrian">
        <lane index="0">
            <param key="origId" value="170144294"/>
        </lane>
        <lane index="1">
            <param key="origId" value="170144294"/>
        </lane>
        <lane index="2">
            <param key="origId" value="170144294"/>
        </lane>
    </edge>
    <edge id="-170144294#4" from="2750494259" to="5834110730" priority="1" type="highway.service" numLanes="3" speed="5.56" shape="114.059074,22.556125 114.058979,22.555797 114.058898,22.555638 114.058812,22.555522 114.058528,22.555244 114.058439,22.555158 114.058402,22.555093 114.058393,22.555034 114.058436,22.553120" allow="delivery bicycle pedestrian">
        <lane index="0">
            <param key="origId" value="170144294"/>
        </lane>
        <lane index="1">
            <param key="origId" value="170144294"/>
        </lane>
        <lane index="2">
            <param key="origId" value="170144294"/>
        </lane>
    </edge>
    <edge id="-170144294#5" from="2750494234" to="2750494259" priority="1" type="highway.service" numLanes="3" speed="5.56" shape="114.058351,22.561916 114.058118,22.561722 114.058034,22.561687 114.057924,22.561667 114.057833,22.561670 114.057739,22.561605 114.056971,22.560661 114.057817,22.560077 114.057973,22.559973 114.058072,22.559931 114.058539,22.559787 114.058608,22.559748 114.058657,22.559686 114.058697,22.559587 114.058751,22.559331 114.058807,22.559034 114.058852,22.558908 114.059107,22.558435 114.059166,22.558266 114.059193,22.558133 114.059198,22.558009 114.059212,22.557739 114.059239,22.557464 114.059247,22.557229 114.059225,22.556904 114.059150,22.556446 114.059074,22.556125" allow="delivery bicycle pedestrian">
        <lane index="0">
            <param key="origId" value="170144294"/>
        </lane>
        <lane index="1">
            <param key="origId" value="170144294"/>
        </lane>
        <lane index="2">
            <param key="origId" value="170144294"/>
        </lane>
    </edge>
    <edge id="-173488620#0" from="1842898699" to="1842898709" priority="1" type="highway.cycleway" numLanes="3" speed="8.33" shape="114.058618,22.551578 114.058927,22.551575 114.059167,22.551567 114.059967,22.551594 114.060337,22.551579 114.060984,22.551577 114.061343,22.551594 114.061587,22.551624 114.062196,22.551651" width="1.00" allow="bicycle">
        <lane index="0">
            <param key="origId" value="173488620"/>
        </lane>
        <lane index="1">
            <param key="origId" value="173488620"/>
        </lane>
        <lane index="2">
            <param key="origId" value="173488620"/>
        </lane>
    </edge>
    <edge id="-173488620#1" from="5374861213" to="1842898699" priority="1" type="highway.cycleway" numLanes="3" speed="8.33" shape="114.054644,22.551481 114.056123,22.551515 114.057119,22.551567 114.057497,22.551570 114.058618,22.551578" width="1.00" allow="bicycle">
        <lane index="0">
            <param key="origId" value="173488620"/>
        </lane>
        <lane index="1">
            <param key="origId" value="173488620"/>
        </lane>
        <lane index="2">
            <param key="origId" value="173488620"/>
        </lane>
    </edge>
    <edge id="-173488620#2" from="5374861220" to="5374861213" priority="1" type="highway.cycleway" numLanes="3" speed="8.33" width="1.00" allow="bicycle">
        <lane index="0">
            <param key="origId" value="173488620"/>
        </lane>
        <lane index="1">
            <param key="origId" value="173488620"/>
        </lane>
        <lane index="2">
            <param key="origId" value="173488620"/>
        </lane>
    </edge>
    <edge id="-173488620#3" from="4127126153" to="5374861220" priority="1" type="highway.cycleway" numLanes="3" speed="8.33" shape="114.050673,22.551447 114.050872,22.551463 114.051079,22.551470 114.052194,22.551461 114.052390,22.551448 114.054193,22.551475" width="1.00" allow="bicycle">
        <lane index="0">
            <param key="origId" value="173488620"/>
        </lane>
        <lane index="1">
            <param key="origId" value="173488620"/>
        </lane>
        <lane index="2">
            <param key="origId" value="173488620"/>
        </lane>
    </edge>
    <edge id="-173488620#4" from="1842898737" to="4127126153" priority="1" type="highway.cycleway" numLanes="3" speed="8.33" shape="114.044615,22.550911 114.045266,22.550990 114.045545,22.550973 114.045870,22.550987 114.046299,22.551020 114.047407,22.551096 114.048509,22.551218 114.049011,22.551252 114.049606,22.551312 114.049952,22.551389 114.050673,22.551447" width="1.00" allow="bicycle">
        <lane index="0">
            <param key="origId" value="173488620"/>
        </lane>
        <lane index="1">
            <param key="origId" value="173488620"/>
        </lane>
        <lane index="2">
            <param key="origId" value="173488620"/>
        </lane>
    </edge>