<?xml version="1.0" encoding="UTF-8"?>

<!-- generated on Thu Oct 31 16:38:32 2019 by Eclipse SUMO netconvert Version 1.2.0
<configuration xmlns:xsi="http://www.w3.org/2001/XMLSchema-instance" xsi:noNamespaceSchemaLocation="http://sumo.dlr.de/xsd/netconvertConfiguration.xsd">

    <input>
        <sumo-net-file value="/Users/zhuliwen/Downloads/福田区和宝安区路网/FuTian/FuTian.net.xml"/>
    </input>

    <output>
        <plain-output-prefix value="FuTian"/>
        <output.street-names value="true"/>
    </output>

    <projection>
        <proj.plain-geo value="true"/>
    </projection>

    <processing>
        <geometry.max-grade.fix value="false"/>
        <offset.disable-normalization value="true"/>
        <lefthand value="false"/>
    </processing>

    <junctions>
        <no-turnarounds value="true"/>
        <junctions.corner-detail value="5"/>
        <junctions.limit-turn-speed value="5.5"/>
        <rectangular-lane-cut value="false"/>
    </junctions>

    <pedestrian>
        <walkingareas value="false"/>
    </pedestrian>

</configuration>
-->

<connections version="1.1" xmlns:xsi="http://www.w3.org/2001/XMLSchema-instance" xsi:noNamespaceSchemaLocation="http://sumo.dlr.de/xsd/connections_file.xsd">
    <connection from="-135913024#0" to="673009027#1" fromLane="0" toLane="0"/>
    <connection from="-135913024#0" to="673009027#1" fromLane="1" toLane="1"/>
    <connection from="-135913024#0" to="135913032#0" fromLane="2" toLane="2"/>
    <connection from="-135913024#0" to="135913024#0" fromLane="2" toLane="2"/>

    <connection from="-135913024#1" to="246134218" fromLane="0" toLane="0"/>
    <connection from="-135913024#1" to="246134218" fromLane="1" toLane="1"/>
    <connection from="-135913024#1" to="246134218" fromLane="2" toLane="2"/>
    <connection from="-135913024#1" to="-135913024#0" fromLane="2" toLane="0"/>
    <connection from="-135913024#1" to="-135913024#0" fromLane="2" toLane="1"/>
    <connection from="-135913024#1" to="-135913024#0" fromLane="2" toLane="2"/>
    <connection from="-135913024#1" to="135913024#1" fromLane="2" toLane="2"/>

    <connection from="-135913032#0" to="135913024#0" fromLane="0" toLane="0"/>
    <connection from="-135913032#0" to="673009027#1" fromLane="0" toLane="0"/>
    <connection from="-135913032#0" to="673009027#1" fromLane="1" toLane="1"/>
    <connection from="-135913032#0" to="673009027#1" fromLane="2" toLane="2"/>
    <connection from="-135913032#0" to="135913032#0" fromLane="2" toLane="2"/>

    <connection from="-135913032#1" to="-135913032#0" fromLane="0" toLane="0"/>
    <connection from="-135913032#1" to="-135913032#0" fromLane="1" toLane="1"/>
    <connection from="-135913032#1" to="-135913032#0" fromLane="2" toLane="2"/>
    <connection from="-135913032#1" to="135913032#1" fromLane="2" toLane="2"/>

    <connection from="-135913032#2" to="246257003" fromLane="0" toLane="0"/>
    <connection from="-135913032#2" to="-135913032#1" fromLane="0" toLane="0"/>
    <connection from="-135913032#2" to="-135913032#1" fromLane="1" toLane="1"/>
    <connection from="-135913032#2" to="-135913032#1" fromLane="2" toLane="2"/>
    <connection from="-135913032#2" to="135913032#2" fromLane="2" toLane="2"/>

    <connection from="-135913032#3" to="245304771#1" fromLane="0" toLane="0"/>
    <connection from="-135913032#3" to="-135913032#2" fromLane="0" toLane="0"/>
    <connection from="-135913032#3" to="-135913032#2" fromLane="1" toLane="1"/>
    <connection from="-135913032#3" to="-135913032#2" fromLane="2" toLane="2"/>
    <connection from="-135913032#3" to="135913032#3" fromLane="2" toLane="2"/>

    <connection from="-135913032#4" to="-135913032#3" fromLane="0" toLane="0"/>
    <connection from="-135913032#4" to="-135913032#3" fromLane="1" toLane="1"/>
    <connection from="-135913032#4" to="-135913032#3" fromLane="2" toLane="2"/>
    <connection from="-135913032#4" to="135913032#4" fromLane="2" toLane="2"/>

    <connection from="-135913032#5" to="-245906121" fromLane="0" toLane="0"/>
    <connection from="-135913032#5" to="-135913032#4" fromLane="0" toLane="0"/>
    <connection from="-135913032#5" to="-135913032#4" fromLane="1" toLane="1"/>
    <connection from="-135913032#5" to="-135913032#4" fromLane="2" toLane="2"/>
    <connection from="-135913032#5" to="135913032#5" fromLane="2" toLane="2"/>

    <connection from="-135913032#6" to="-135913032#5" fromLane="0" toLane="0"/>
    <connection from="-135913032#6" to="-135913032#5" fromLane="1" toLane="1"/>
    <connection from="-135913032#6" to="-135913032#5" fromLane="2" toLane="2"/>
    <connection from="-135913032#6" to="135913032#6" fromLane="2" toLane="2"/>

    <connection from="-135913032#7" to="245906120#0" fromLane="0" toLane="0"/>
    <connection from="-135913032#7" to="-135913032#6" fromLane="0" toLane="0"/>
    <connection from="-135913032#7" to="-135913032#6" fromLane="1" toLane="1"/>
    <connection from="-135913032#7" to="-135913032#6" fromLane="2" toLane="2"/>
    <connection from="-135913032#7" to="135913032#7" fromLane="2" toLane="2"/>

    <connection from="-135913032#8" to="242827617" fromLane="0" toLane="0"/>
    <connection from="-135913032#8" to="-135913032#7" fromLane="0" toLane="0"/>
    <connection from="-135913032#8" to="-135913032#7" fromLane="1" toLane="1"/>
    <connection from="-135913032#8" to="-135913032#7" fromLane="2" toLane="2"/>
    <connection from="-135913032#8" to="135913032#8" fromLane="2" toLane="2"/>

    <connection from="-135913032#9" to="-135913032#8" fromLane="0" toLane="0"/>
    <connection from="-135913032#9" to="-135913032#8" fromLane="1" toLane="1"/>
    <connection from="-135913032#9" to="-135913032#8" fromLane="2" toLane="2"/>
    <connection from="-135913032#9" to="135913032#9" fromLane="2" toLane="2"/>

    <connection from="-135913041#0" to="220799854#8" fromLane="0" toLane="0"/>
    <connection from="-135913041#0" to="684241523#1" fromLane="0" toLane="0"/>
    <connection from="-135913041#0" to="684241523#1" fromLane="1" toLane="1"/>
    <connection from="-135913041#0" to="684241523#1" fromLane="2" toLane="2"/>
    <connection from="-135913041#0" to="-220799854#7" fromLane="2" toLane="2"/>
    <connection from="-135913041#0" to="-684241523#0" fromLane="2" toLane="2"/>

    <connection from="-135913041#1" to="-135913041#0" fromLane="0" toLane="0"/>
    <connection from="-135913041#1" to="-135913041#0" fromLane="1" toLane="1"/>
    <connection from="-135913041#1" to="-135913041#0" fromLane="2" toLane="2"/>
    <connection from="-135913041#1" to="-193719682#2" fromLane="2" toLane="1"/>
    <connection from="-135913041#1" to="-193719682#2" fromLane="2" toLane="2"/>
    <connection from="-135913041#1" to="135913041#1" fromLane="2" toLane="2"/>

    <connection from="-135913041#2" to="508876169" fromLane="0" toLane="0"/>
    <connection from="-135913041#2" to="-135913041#1" fromLane="0" toLane="0"/>
    <connection from="-135913041#2" to="-135913041#1" fromLane="1" toLane="1"/>
    <connection from="-135913041#2" to="-135913041#1" fromLane="2" toLane="2"/>
    <connection from="-135913041#2" to="-31542519#5" fromLane="2" toLane="2"/>
    <connection from="-135913041#2" to="135913041#2" fromLane="2" toLane="2"/>

    <connection from="-135913041#4" to="-508876173" fromLane="0" toLane="0"/>
    <connection from="-135913041#4" to="-135913041#2" fromLane="0" toLane="0"/>
    <connection from="-135913041#4" to="-135913041#2" fromLane="1" toLane="1"/>
    <connection from="-135913041#4" to="-135913041#2" fromLane="2" toLane="2"/>
    <connection from="-135913041#4" to="-135913046#5" fromLane="2" toLane="2"/>
    <connection from="-135913041#4" to="135913041#4" fromLane="2" toLane="2"/>

    <connection from="-135913046#0" to="31542521#3" fromLane="0" toLane="0"/>
    <connection from="-135913046#0" to="31542521#3" fromLane="1" toLane="1"/>
    <connection from="-135913046#0" to="31542521#3" fromLane="2" toLane="2"/>
    <connection from="-135913046#0" to="135913046#0" fromLane="2" toLane="2"/>

    <connection from="-135913046#1" to="-684241521#1" fromLane="0" toLane="0"/>
    <connection from="-135913046#1" to="-135913046#0" fromLane="0" toLane="0"/>
    <connection from="-135913046#1" to="-135913046#0" fromLane="1" toLane="1"/>
    <connection from="-135913046#1" to="-135913046#0" fromLane="2" toLane="2"/>
    <connection from="-135913046#1" to="684241521#2" fromLane="2" toLane="2"/>
    <connection from="-135913046#1" to="135913046#1" fromLane="2" toLane="2"/>

    <connection from="-135913046#3" to="-684241525" fromLane="0" toLane="0"/>
    <connection from="-135913046#3" to="-135913046#1" fromLane="0" toLane="0"/>
    <connection from="-135913046#3" to="-135913046#1" fromLane="1" toLane="1"/>
    <connection from="-135913046#3" to="-135913046#1" fromLane="2" toLane="2"/>
    <connection from="-135913046#3" to="-360763850" fromLane="2" toLane="2"/>
    <connection from="-135913046#3" to="135913046#3" fromLane="2" toLane="2"/>

    <connection from="-135913046#4" to="193721705#0" fromLane="0" toLane="0"/>
    <connection from="-135913046#4" to="-135913046#3" fromLane="0" toLane="0"/>
    <connection from="-135913046#4" to="-135913046#3" fromLane="1" toLane="1"/>
    <connection from="-135913046#4" to="-135913046#3" fromLane="2" toLane="2"/>
    <connection from="-135913046#4" to="135913046#4" fromLane="2" toLane="2"/>

    <connection from="-135913046#5" to="220799854#5" fromLane="0" toLane="0"/>
    <connection from="-135913046#5" to="-135913046#4" fromLane="0" toLane="0"/>
    <connection from="-135913046#5" to="-135913046#4" fromLane="1" toLane="1"/>
    <connection from="-135913046#5" to="-135913046#4" fromLane="2" toLane="2"/>
    <connection from="-135913046#5" to="-220799854#4" fromLane="2" toLane="2"/>
    <connection from="-135913046#5" to="135913046#5" fromLane="2" toLane="2"/>

    <connection from="-135913054" to="220799854#3" fromLane="0" toLane="0"/>
    <connection from="-135913054" to="-220799854#2" fromLane="1" toLane="1"/>
    <connection from="-135913054" to="-220799854#2" fromLane="2" toLane="2"/>
    <connection from="-135913054" to="135913054" fromLane="2" toLane="2"/>

    <connection from="-135913055" to="508876166#0" fromLane="0" toLane="0"/>
    <connection from="-135913055" to="508876166#0" fromLane="0" toLane="1"/>
    <connection from="-135913055" to="508876166#0" fromLane="0" toLane="2"/>
    <connection from="-135913055" to="96329693#0" fromLane="1" toLane="1"/>
    <connection from="-135913055" to="96329693#0" fromLane="2" toLane="2"/>
    <connection from="-135913055" to="135913055" fromLane="2" toLane="2"/>

    <connection from="-158109820#0" to="44394823#2" fromLane="0" toLane="0"/>
    <connection from="-158109820#0" to="44394823#2" fromLane="1" toLane="1"/>
    <connection from="-158109820#0" to="44394823#2" fromLane="2" toLane="2"/>
    <connection from="-158109820#0" to="158109820#0" fromLane="2" toLane="2"/>

    <connection from="-158109820#1" to="-193703117#2" fromLane="0" toLane="0"/>
    <connection from="-158109820#1" to="-158109820#0" fromLane="0" toLane="0"/>
    <connection from="-158109820#1" to="-158109820#0" fromLane="1" toLane="1"/>
    <connection from="-158109820#1" to="-158109820#0" fromLane="2" toLane="2"/>
    <connection from="-158109820#1" to="158109820#1" fromLane="2" toLane="2"/>

    <connection from="-158112572#0" to="308238960#4" fromLane="0" toLane="0"/>
    <connection from="-158112572#0" to="-308238960#3" fromLane="1" toLane="1"/>
    <connection from="-158112572#0" to="-308238960#3" fromLane="2" toLane="2"/>
    <connection from="-158112572#0" to="158112572#0" fromLane="2" toLane="2"/>

    <connection from="-158112572#1" to="-158112572#0" fromLane="0" toLane="0"/>
    <connection from="-158112572#1" to="-158112572#0" fromLane="1" toLane="1"/>
    <connection from="-158112572#1" to="-158112572#0" fromLane="2" toLane="2"/>
    <connection from="-158112572#1" to="193702048" fromLane="2" toLane="1"/>
    <connection from="-158112572#1" to="193702048" fromLane="2" toLane="2"/>
    <connection from="-158112572#1" to="158112572#1" fromLane="2" toLane="2"/>

    <connection from="-166998768#0" to="166998770#2" fromLane="0" toLane="0"/>
    <connection from="-166998768#0" to="-166998770#1" fromLane="1" toLane="1"/>
    <connection from="-166998768#0" to="-166998770#1" fromLane="2" toLane="2"/>
    <connection from="-166998768#0" to="166998768#0" fromLane="2" toLane="2"/>

    <connection from="-166998768#1" to="-166998768#0" fromLane="0" toLane="0"/>
    <connection from="-166998768#1" to="97522107#0" fromLane="1" toLane="1"/>
    <connection from="-166998768#1" to="97522107#0" fromLane="2" toLane="2"/>
    <connection from="-166998768#1" to="166998768#1" fromLane="2" toLane="2"/>

    <connection from="-166998770#0" to="-97522329#0" fromLane="0" toLane="0"/>
    <connection from="-166998770#0" to="97522329#1" fromLane="1" toLane="1"/>
    <connection from="-166998770#0" to="97522329#1" fromLane="2" toLane="2"/>
    <connection from="-166998770#0" to="166998770#0" fromLane="2" toLane="2"/>

    <connection from="-166998770#1" to="-166998795" fromLane="0" toLane="0"/>
    <connection from="-166998770#1" to="-166998770#0" fromLane="0" toLane="0"/>
    <connection from="-166998770#1" to="-166998770#0" fromLane="1" toLane="1"/>
    <connection from="-166998770#1" to="-166998770#0" fromLane="2" toLane="2"/>
    <connection from="-166998770#1" to="166998770#1" fromLane="2" toLane="2"/>

    <connection from="-166998770#2" to="-166998770#1" fromLane="0" toLane="0"/>
    <connection from="-166998770#2" to="-166998770#1" fromLane="1" toLane="1"/>
    <connection from="-166998770#2" to="-166998770#1" fromLane="2" toLane="2"/>
    <connection from="-166998770#2" to="166998768#0" fromLane="2" toLane="1"/>
    <connection from="-166998770#2" to="166998768#0" fromLane="2" toLane="2"/>
    <connection from="-166998770#2" to="166998770#2" fromLane="2" toLane="2"/>

    <connection from="-166998770#3" to="-217589453" fromLane="0" toLane="0"/>
    <connection from="-166998770#3" to="-166998770#2" fromLane="0" toLane="0"/>
    <connection from="-166998770#3" to="-166998770#2" fromLane="1" toLane="1"/>
    <connection from="-166998770#3" to="-166998770#2" fromLane="2" toLane="2"/>
    <connection from="-166998770#3" to="166998770#3" fromLane="2" toLane="2"/>

    <connection from="-166998770#4" to="-166998770#3" fromLane="0" toLane="0"/>
    <connection from="-166998770#4" to="-166998770#3" fromLane="1" toLane="1"/>
    <connection from="-166998770#4" to="-166998770#3" fromLane="2" toLane="2"/>
    <connection from="-166998770#4" to="166998814" fromLane="2" toLane="1"/>
    <connection from="-166998770#4" to="166998814" fromLane="2" toLane="2"/>
    <connection from="-166998770#4" to="166998770#4" fromLane="2" toLane="2"/>

    <connection from="-166998770#5" to="217589461#1" fromLane="0" toLane="0"/>
    <connection from="-166998770#5" to="-166998770#4" fromLane="0" toLane="0"/>
    <connection from="-166998770#5" to="-166998770#4" fromLane="1" toLane="1"/>
    <connection from="-166998770#5" to="-166998770#4" fromLane="2" toLane="2"/>
    <connection from="-166998770#5" to="-217589461#0" fromLane="2" toLane="2"/>
    <connection from="-166998770#5" to="166998770#5" fromLane="2" toLane="2"/>

    <connection from="-166998770#6" to="-166998804" fromLane="0" toLane="0"/>
    <connection from="-166998770#6" to="-166998770#5" fromLane="0" toLane="0"/>
    <connection from="-166998770#6" to="-166998770#5" fromLane="1" toLane="1"/>
    <connection from="-166998770#6" to="-166998770#5" fromLane="2" toLane="2"/>
    <connection from="-166998770#6" to="166998770#6" fromLane="2" toLane="2"/>

    <connection from="-166998795" to="245930463#13" fromLane="0" toLane="0"/>
    <connection from="-166998795" to="245930463#13" fromLane="1" toLane="1"/>
    <connection from="-166998795" to="245930463#13" fromLane="2" toLane="2"/>
    <connection from="-166998795" to="166998795" fromLane="2" toLane="2"/>

    <connection from="-166998804" to="217589461#3" fromLane="0" toLane="0"/>
    <connection from="-166998804" to="-217589461#2" fromLane="1" toLane="1"/>
    <connection from="-166998804" to="-217589461#2" fromLane="2" toLane="2"/>
    <connection from="-166998804" to="166998804" fromLane="2" toLane="2"/>

    <connection from="-166998814" to="166998770#4" fromLane="0" toLane="0"/>
    <connection from="-166998814" to="-166998770#3" fromLane="1" toLane="1"/>
    <connection from="-166998814" to="-166998770#3" fromLane="2" toLane="2"/>
    <connection from="-166998814" to="166998814" fromLane="2" toLane="2"/>

    <connection from="-170144294#0" to="44394823#9" fromLane="0" toLane="0"/>
    <connection from="-170144294#0" to="44394823#9" fromLane="1" toLane="1"/>
    <connection from="-170144294#0" to="44394823#9" fromLane="2" toLane="2"/>
    <connection from="-170144294#0" to="170144294#0" fromLane="2" toLane="2"/>

    <connection from="-170144294#1" to="173488620#1" fromLane="0" toLane="0"/>
    <connection from="-170144294#1" to="-170144294#0" fromLane="0" toLane="0"/>
    <connection from="-170144294#1" to="-170144294#0" fromLane="1" toLane="1"/>
    <connection from="-170144294#1" to="-170144294#0" fromLane="2" toLane="2"/>
    <connection from="-170144294#1" to="-173488620#0" fromLane="2" toLane="2"/>
    <connection from="-170144294#1" to="170144294#1" fromLane="2" toLane="2"/>

    <connection from="-170144294#2" to="-170144294#1" fromLane="0" toLane="0"/>
    <connection from="-170144294#2" to="-170144294#1" fromLane="1" toLane="1"/>
    <connection from="-170144294#2" to="-170144294#1" fromLane="2" toLane="2"/>
    <connection from="-170144294#2" to="557288288#0" fromLane="2" toLane="1"/>
    <connection from="-170144294#2" to="557288288#0" fromLane="2" toLane="2"/>
    <connection from="-170144294#2" to="170144294#2" fromLane="2" toLane="2"/>

    <connection from="-170144294#3" to="269925469#0" fromLane="0" toLane="0"/>
    <connection from="-170144294#3" to="-170144294#2" fromLane="0" toLane="0"/>
    <connection from="-170144294#3" to="-170144294#2" fromLane="1" toLane="1"/>
    <connection from="-170144294#3" to="-170144294#2" fromLane="2" toLane="2"/>
    <connection from="-170144294#3" to="170144294#3" fromLane="2" toLane="2"/>

    <connection from="-170144294#4" to="-170144294#3" fromLane="0" toLane="0"/>
    <connection from="-170144294#4" to="-170144294#3" fromLane="1" toLane="1"/>
    <connection from="-170144294#4" to="-170144294#3" fromLane="2" toLane="2"/>
    <connection from="-170144294#4" to="170144294#4" fromLane="2" toLane="2"/>

    <connection from="-170144294#5" to="-170144294#4" fromLane="0" toLane="0"/>
    <connection from="-170144294#5" to="-170144294#4" fromLane="1" toLane="1"/>
    <connection from="-170144294#5" to="-170144294#4" fromLane="2" toLane="2"/>
    <connection from="-170144294#5" to="170144294#5" fromLane="2" toLane="2"/>

    <connection from="-173488620#0" to="173488620#0" fromLane="2" toLane="2"/>

    <connection from="-173488620#1" to="-170144294#0" fromLane="0" toLane="0"/>
    <connection from="-173488620#1" to="-173488620#0" fromLane="0" toLane="0"/>
    <connection from="-173488620#1" to="-173488620#0" fromLane="1" toLane="1"/>
    <connection from="-173488620#1" to="-173488620#0" fromLane="2" toLane="2"/>
    <connection from="-173488620#1" to="170144294#1" fromLane="2" toLane="2"/>
    <connection from="-173488620#1" to="173488620#1" fromLane="2" toLane="2"/>

    <connection from="-173488620#2" to="-173488620#1" fromLane="0" toLane="0"/>
    <connection from="-173488620#2" to="-173488620#1" fromLane="1" toLane="1"/>
    <connection from="-173488620#2" to="-173488620#1" fromLane="2" toLane="2"/>
    <connection from="-173488620#2" to="173488620#2" fromLane="2" toLane="2"/>

    <connection from="-173488620#3" to="-173488620#2" fromLane="0" toLane="0"/>
    <connection from="-173488620#3" to="-173488620#2" fromLane="1" toLane="1"/>
    <connection from="-173488620#3" to="-173488620#2" fromLane="2" toLane="2"/>
    <connection from="-173488620#3" to="173488620#3" fromLane="2" toLane="2"/>

    <connection from="-173488620#4" to="-173489140#0" fromLane="0" toLane="0"/>
    <connection from="-173488620#4" to="-173488620#3" fromLane="0" toLane="0"/>
    <connection from="-173488620#4" to="-173488620#3" fromLane="1" toLane="1"/>
    <connection from="-173488620#4" to="-173488620#3" fromLane="2" toLane="2"/>
    <connection from="-173488620#4" to="173489140#1" fromLane="2" toLane="2"/>
    <connection from="-173488620#4" to="173488620#4" fromLane="2" toLane="2"/>

    <connection from="-173489136#0" to="-173489140#2" fromLane="0" toLane="0"/>
    <connection from="-173489136#0" to="-173489140#2" fromLane="1" toLane="1"/>
    <connection from="-173489136#0" to="-173489140#2" fromLane="2" toLane="2"/>
    <connection from="-173489136#0" to="173489136#0" fromLane="2" toLane="2"/>

    <connection from="-173489136#1" to="-173489136#0" fromLane="0" toLane="0"/>
    <connection from="-173489136#1" to="-173489136#0" fromLane="1" toLane="1"/>
    <connection from="-173489136#1" to="-173489136#0" fromLane="2" toLane="2"/>
    <connection from="-173489136#1" to="173489136#1" fromLane="2" toLane="2"/>

    <connection from="-173489136#2" to="-173489136#1" fromLane="0" toLane="0"/>
    <connection from="-173489136#2" to="-173489136#1" fromLane="1" toLane="1"/>
    <connection from="-173489136#2" to="-173489136#1" fromLane="2" toLane="2"/>
    <connection from="-173489136#2" to="173489136#2" fromLane="2" toLane="2"/>

    <connection from="-173489136#3" to="-96332996#2" fromLane="0" toLane="0"/>
    <connection from="-173489136#3" to="-96332996#2" fromLane="1" toLane="1"/>
    <connection from="-173489136#3" to="-173489136#2" fromLane="2" toLane="1"/>
    <connection from="-173489136#3" to="-173489136#2" fromLane="2" toLane="2"/>
    <connection from="-173489136#3" to="173489136#3" fromLane="2" toLane="2"/>

    <connection from="-173489136#4" to="-173489136#3" fromLane="0" toLane="0"/>
    <connection from="-173489136#4" to="-173489136#3" fromLane="1" toLane="1"/>
    <connection from="-173489136#4" to="-173489136#3" fromLane="2" toLane="2"/>
    <connection from="-173489136#4" to="173489136#4" fromLane="2" toLane="2"/>

    <connection from="-173489140#0" to="44394823#14" fromLane="0" toLane="0"/>
    <connection from="-173489140#0" to="44394823#14" fromLane="1" toLane="1"/>
    <connection from="-173489140#0" to="44394823#14" fromLane="2" toLane="2"/>
    <connection from="-173489140#0" to="173489140#0" fromLane="2" toLane="2"/>

    <connection from="-173489140#1" to="173488620#4" fromLane="0" toLane="0"/>
    <connection from="-173489140#1" to="-173489140#0" fromLane="0" toLane="0"/>
    <connection from="-173489140#1" to="-173489140#0" fromLane="1" toLane="1"/>
    <connection from="-173489140#1" to="-173489140#0" fromLane="2" toLane="2"/>
    <connection from="-173489140#1" to="-173488620#3" fromLane="2" toLane="2"/>
    <connection from="-173489140#1" to="173489140#1" fromLane="2" toLane="2"/>

    <connection from="-173489140#2" to="-173489140#1" fromLane="0" toLane="0"/>
    <connection from="-173489140#2" to="-173489140#1" fromLane="1" toLane="1"/>
    <connection from="-173489140#2" to="-173489140#1" fromLane="2" toLane="2"/>
    <connection from="-173489140#2" to="173489140#2" fromLane="2" toLane="2"/>

    <connection from="-183019562#0" to="269888645#9" fromLane="0" toLane="0"/>
    <connection from="-183019562#0" to="269888645#9" fromLane="1" toLane="1"/>
    <connection from="-183019562#0" to="269888645#9" fromLane="2" toLane="2"/>
    <connection from="-183019562#0" to="183019562#0" fromLane="2" toLane="2"/>

    <connection from="-183019562#2" to="616988633#7" fromLane="0" toLane="0"/>
    <connection from="-183019562#2" to="-183019562#0" fromLane="0" toLane="0"/>
    <connection from="-183019562#2" to="-183019562#0" fromLane="1" toLane="1"/>
    <connection from="-183019562#2" to="-183019562#0" fromLane="2" toLane="2"/>
    <connection from="-183019562#2" to="270041726#2" fromLane="2" toLane="2"/>
    <connection from="-183019562#2" to="183019562#2" fromLane="2" toLane="2"/>

    <connection from="-187658562" to="187658562" fromLane="2" toLane="2"/>

    <connection from="-187658563#0" to="31560815#2" fromLane="0" toLane="0"/>
    <connection from="-187658563#0" to="31560815#2" fromLane="1" toLane="1"/>
    <connection from="-187658563#0" to="31560815#2" fromLane="2" toLane="2"/>
    <connection from="-187658563#0" to="187658563#0" fromLane="2" toLane="2"/>

    <connection from="-187658563#1" to="187658598#1" fromLane="0" toLane="0"/>
    <connection from="-187658563#1" to="-187658563#0" fromLane="0" toLane="0"/>
    <connection from="-187658563#1" to="-187658563#0" fromLane="1" toLane="1"/>
    <connection from="-187658563#1" to="-187658563#0" fromLane="2" toLane="2"/>
    <connection from="-187658563#1" to="-187658598#0" fromLane="2" toLane="2"/>
    <connection from="-187658563#1" to="187658563#1" fromLane="2" toLane="2"/>

    <connection from="-187658563#2" to="187658564#0" fromLane="0" toLane="0"/>
    <connection from="-187658563#2" to="-187658563#1" fromLane="0" toLane="0"/>
    <connection from="-187658563#2" to="-187658563#1" fromLane="1" toLane="1"/>
    <connection from="-187658563#2" to="-187658563#1" fromLane="2" toLane="2"/>
    <connection from="-187658563#2" to="187658563#2" fromLane="2" toLane="2"/>

    <connection from="-187658564#0" to="-187658563#1" fromLane="0" toLane="0"/>
    <connection from="-187658564#0" to="187658563#2" fromLane="1" toLane="1"/>
    <connection from="-187658564#0" to="187658563#2" fromLane="2" toLane="2"/>
    <connection from="-187658564#0" to="187658564#0" fromLane="2" toLane="2"/>

    <connection from="-187658564#1" to="-187658562" fromLane="0" toLane="0"/>
    <connection from="-187658564#1" to="-187658564#0" fromLane="0" toLane="0"/>
    <connection from="-187658564#1" to="-187658564#0" fromLane="1" toLane="1"/>
    <connection from="-187658564#1" to="-187658564#0" fromLane="2" toLane="2"/>
    <connection from="-187658564#1" to="187658564#1" fromLane="2" toLane="2"/>

    <connection from="-187658598#0" to="41019601#4" fromLane="0" toLane="0"/>
    <connection from="-187658598#0" to="41019601#4" fromLane="1" toLane="1"/>
    <connection from="-187658598#0" to="41019601#4" fromLane="2" toLane="2"/>
    <connection from="-187658598#0" to="187658598#0" fromLane="2" toLane="2"/>

    <connection from="-187658598#1" to="-187658563#0" fromLane="0" toLane="0"/>
    <connection from="-187658598#1" to="-187658598#0" fromLane="0" toLane="0"/>
    <connection from="-187658598#1" to="-187658598#0" fromLane="1" toLane="1"/>
    <connection from="-187658598#1" to="-187658598#0" fromLane="2" toLane="2"/>
    <connection from="-187658598#1" to="187658563#1" fromLane="2" toLane="2"/>
    <connection from="-187658598#1" to="187658598#1" fromLane="2" toLane="2"/>

    <connection from="-187659528#0" to="97522329#1" fromLane="0" toLane="0"/>
    <connection from="-187659528#0" to="97522329#1" fromLane="1" toLane="1"/>
    <connection from="-187659528#0" to="97522329#1" fromLane="2" toLane="2"/>
    <connection from="-187659528#0" to="166998770#0" fromLane="2" toLane="1"/>
    <connection from="-187659528#0" to="166998770#0" fromLane="2" toLane="2"/>
    <connection from="-187659528#0" to="-97522329#0" fromLane="2" toLane="2"/>

    <connection from="-187659528#1" to="-187659528#0" fromLane="0" toLane="0"/>
    <connection from="-187659528#1" to="-187659528#0" fromLane="1" toLane="1"/>
    <connection from="-187659528#1" to="-187659528#0" fromLane="2" toLane="2"/>
    <connection from="-187659528#1" to="-545243407" fromLane="2" toLane="1"/>
    <connection from="-187659528#1" to="-545243407" fromLane="2" toLane="2"/>
    <connection from="-187659528#1" to="187659528#1" fromLane="2" toLane="2"/>

    <connection from="-187659530#0" to="31560803#17" fromLane="0" toLane="0"/>
    <connection from="-187659530#0" to="31560803#17" fromLane="1" toLane="1"/>
    <connection from="-187659530#0" to="31560803#17" fromLane="2" toLane="2"/>
    <connection from="-187659530#0" to="187659530#0" fromLane="2" toLane="2"/>

    <connection from="-187659530#1" to="96329677#3" fromLane="0" toLane="0"/>
    <connection from="-187659530#1" to="-187659530#0" fromLane="0" toLane="0"/>
    <connection from="-187659530#1" to="-187659530#0" fromLane="1" toLane="1"/>
    <connection from="-187659530#1" to="-187659530#0" fromLane="2" toLane="2"/>
    <connection from="-187659530#1" to="-96329677#2" fromLane="2" toLane="2"/>
    <connection from="-187659530#1" to="187659530#1" fromLane="2" toLane="2"/>

    <connection from="-187659530#2" to="-545243401" fromLane="0" toLane="0"/>
    <connection from="-187659530#2" to="-187659530#1" fromLane="0" toLane="0"/>
    <connection from="-187659530#2" to="-187659530#1" fromLane="1" toLane="1"/>
    <connection from="-187659530#2" to="-187659530#1" fromLane="2" toLane="2"/>
    <connection from="-187659530#2" to="187659530#2" fromLane="2" toLane="2"/>

    <connection from="-187659530#3" to="686891191" fromLane="0" toLane="0"/>
    <connection from="-187659530#3" to="-187659530#2" fromLane="0" toLane="0"/>
    <connection from="-187659530#3" to="-187659530#2" fromLane="1" toLane="1"/>
    <connection from="-187659530#3" to="-187659530#2" fromLane="2" toLane="2"/>
    <connection from="-187659530#3" to="187659530#3" fromLane="2" toLane="2"/>

    <connection from="-187659533#0" to="40977702#3" fromLane="0" toLane="0"/>
    <connection from="-187659533#0" to="40977702#3" fromLane="1" toLane="1"/>
    <connection from="-187659533#0" to="40977702#3" fromLane="2" toLane="2"/>
    <connection from="-187659533#0" to="187659533#0" fromLane="2" toLane="2"/>

    <connection from="-187659533#1" to="545243408#3" fromLane="0" toLane="0"/>
    <connection from="-187659533#1" to="545243408#3" fromLane="1" toLane="1"/>