<?xml version="1.0" encoding="UTF-8"?>

<!-- generated on Thu Oct 31 16:38:32 2019 by Eclipse SUMO netconvert Version 1.2.0
<configuration xmlns:xsi="http://www.w3.org/2001/XMLSchema-instance" xsi:noNamespaceSchemaLocation="http://sumo.dlr.de/xsd/netconvertConfiguration.xsd">

    <input>
        <sumo-net-file value="/Users/zhuliwen/Downloads/福田区和宝安区路网/FuTian/FuTian.net.xml"/>
    </input>

    <output>
        <plain-output-prefix value="FuTian"/>
        <output.street-names value="true"/>
    </output>

    <projection>
        <proj.plain-geo value="true"/>
    </projection>

    <processing>
        <geometry.max-grade.fix value="false"/>
        <offset.disable-normalization value="true"/>
        <lefthand value="false"/>
    </processing>

    <junctions>
        <no-turnarounds value="true"/>
        <junctions.corner-detail value="5"/>
        <junctions.limit-turn-speed value="5.5"/>
        <rectangular-lane-cut value="false"/>
    </junctions>

    <pedestrian>
        <walkingareas value="false"/>
    </pedestrian>

</configuration>
-->

<tlLogics version="1.1" xmlns:xsi="http://www.w3.org/2001/XMLSchema-instance" xsi:noNamespaceSchemaLocation="http://sumo.dlr.de/xsd/tllogic_file.xsd">
    <tlLogic id="1116469165" type="actuated" programID="0" offset="0">
        <phase duration="20" state="gggGGGrrrr" minDur="10" maxDur="30"/>
        <phase duration="20" state="gggrrrGGGG" minDur="10" maxDur="30"/>
    </tlLogic>
    <tlLogic id="1116469169" type="actuated" programID="0" offset="0">
        <phase duration="20" state="gGGGrGGrrrrgrrr" minDur="10" maxDur="30"/>
        <phase duration="20" state="grrrGrrrGGGgrrr" minDur="10" maxDur="30"/>
        <phase duration="20" state="grrrrrrrrrrgGGG" minDur="10" maxDur="30"/>
    </tlLogic>
    <tlLogic id="1116469170" type="actuated" programID="0" offset="0">
        <phase duration="20" state="grrrrrgGGGrrgrrrrrgGGGrr" minDur="10" maxDur="30"/>
        <phase duration="20" state="grrrrrgrrrGGgrrrrrgrrrGG" minDur="10" maxDur="30"/>
        <phase duration="20" state="gGGGrrgrrrrrgGGGrrgrrrrr" minDur="10" maxDur="30"/>
        <phase duration="20" state="grrrGGgrrrrrgrrrGGgrrrrr" minDur="10" maxDur="30"/>
    </tlLogic>
    <tlLogic id="1116469177" type="actuated" programID="0" offset="0">
        <phase duration="20" state="grrrrrgGGGrrgrrrrrgGGGrr" minDur="10" maxDur="30"/>
        <phase duration="20" state="grrrrrgrrrGGgrrrrrgrrrGG" minDur="10" maxDur="30"/>
        <phase duration="20" state="gGGGrrgrrrrrgGGGrrgrrrrr" minDur="10" maxDur="30"/>
        <phase duration="20" state="grrrGGgrrrrrgrrrGGgrrrrr" minDur="10" maxDur="30"/>
    </tlLogic>
    <tlLogic id="1116469186" type="actuated" programID="0" offset="0">
        <phase duration="20" state="GGGrgrrGGGr" minDur="10" maxDur="30"/>
        <phase duration="20" state="rrrGgrrrrrG" minDur="10" maxDur="30"/>
        <phase duration="20" state="rrrrgGGrrrr" minDur="10" maxDur="30"/>
    </tlLogic>
    <tlLogic id="1116469196" type="actuated" programID="0" offset="0">
        <phase duration="20" state="gggGGGrrrr" minDur="10" maxDur="30"/>
        <phase duration="20" state="gggrrrGGGG" minDur="10" maxDur="30"/>
    </tlLogic>
    <tlLogic id="1116469213" type="actuated" programID="0" offset="0">
        <phase duration="20" state="gGGGrGGrrrrgrrr" minDur="10" maxDur="30"/>
        <phase duration="20" state="grrrGrrrGGGgrrr" minDur="10" maxDur="30"/>
        <phase duration="20" state="grrrrrrrrrrgGGG" minDur="10" maxDur="30"/>
    </tlLogic>
    <tlLogic id="1116469225" type="actuated" programID="0" offset="0">
        <phase duration="60" state="grrrgGGGrgrrr" minDur="30" maxDur="90"/>
    </tlLogic>
    <tlLogic id="1116501195" type="actuated" programID="0" offset="0">
        <phase duration="20" state="gggGGGrrrr" minDur="10" maxDur="30"/>
        <phase duration="20" state="gggrrrGGGG" minDur="10" maxDur="30"/>
    </tlLogic>
    <tlLogic id="1116501248" type="actuated" programID="0" offset="0">
        <phase duration="20" state="grrrrrgGGGrrgrrrrrgGGGrr" minDur="10" maxDur="30"/>
        <phase duration="20" state="grrrrrgrrrGGgrrrrrgrrrGG" minDur="10" maxDur="30"/>
        <phase duration="20" state="gGGGrrgrrrrrgGGGrrgrrrrr" minDur="10" maxDur="30"/>
        <phase duration="20" state="grrrGGgrrrrrgrrrGGgrrrrr" minDur="10" maxDur="30"/>
    </tlLogic>
    <tlLogic id="1116501272" type="actuated" programID="0" offset="0">
        <phase duration="20" state="ggrrrggGGrGrrr" minDur="10" maxDur="30"/>
        <phase duration="20" state="ggrrrggrrGrGGG" minDur="10" maxDur="30"/>
        <phase duration="20" state="ggGGGggrrrrrrr" minDur="10" maxDur="30"/>
    </tlLogic>
    <tlLogic id="1116501304" type="actuated" programID="0" offset="0">
        <phase duration="20" state="grrrrrgGGGrrgrrrrrgGGGrr" minDur="10" maxDur="30"/>
        <phase duration="20" state="grrrrrgrrrGGgrrrrrgrrrGG" minDur="10" maxDur="30"/>
        <phase duration="20" state="gGGGrrgrrrrrgGGGrrgrrrrr" minDur="10" maxDur="30"/>
        <phase duration="20" state="grrrGGgrrrrrgrrrGGgrrrrr" minDur="10" maxDur="30"/>
    </tlLogic>
    <tlLogic id="1116501322" type="actuated" programID="0" offset="0">
        <phase duration="20" state="gGGGrGGrrrrgrrr" minDur="10" maxDur="30"/>
        <phase duration="20" state="grrrGrrrGGGgrrr" minDur="10" maxDur="30"/>
        <phase duration="20" state="grrrrrrrrrrgGGG" minDur="10" maxDur="30"/>
    </tlLogic>
    <tlLogic id="1491845063" type="actuated" programID="0" offset="0">
        <phase duration="20" state="gGGGrGGrrrrgrrr" minDur="10" maxDur="30"/>
        <phase duration="20" state="grrrGrrrGGGgrrr" minDur="10" maxDur="30"/>
        <phase duration="20" state="grrrrrrrrrrgGGG" minDur="10" maxDur="30"/>
    </tlLogic>
    <tlLogic id="1491845065" type="actuated" programID="0" offset="0">
        <phase duration="20" state="grrrrrgGGGrrgrrrrrgGGGrr" minDur="10" maxDur="30"/>
        <phase duration="20" state="grrrrrgrrrGGgrrrrrgrrrGG" minDur="10" maxDur="30"/>
        <phase duration="20" state="gGGGrrgrrrrrgGGGrrgrrrrr" minDur="10" maxDur="30"/>
        <phase duration="20" state="grrrGGgrrrrrgrrrGGgrrrrr" minDur="10" maxDur="30"/>
    </tlLogic>
    <tlLogic id="1491845092" type="actuated" programID="0" offset="0">
        <phase duration="20" state="grrrrrgGGGrrgrrrrrgGGGrr" minDur="10" maxDur="30"/>
        <phase duration="20" state="grrrrrgrrrGGgrrrrrgrrrGG" minDur="10" maxDur="30"/>
        <phase duration="20" state="gGGGrrgrrrrrgGGGrrgrrrrr" minDur="10" maxDur="30"/>
        <phase duration="20" state="grrrGGgrrrrrgrrrGGgrrrrr" minDur="10" maxDur="30"/>
    </tlLogic>
    <tlLogic id="1491845101" type="actuated" programID="0" offset="0">
        <phase duration="20" state="grrrrrgGrrgrrrrrrgGrr" minDur="10" maxDur="30"/>
        <phase duration="20" state="grrrrrgrGGgrrrrrrgrGG" minDur="10" maxDur="30"/>
        <phase duration="20" state="gGGGrrgrrrgGGrrrrgrrr" minDur="10" maxDur="30"/>
        <phase duration="20" state="grrrGGgrrrgrrGrGGgrrr" minDur="10" maxDur="30"/>
    </tlLogic>
    <tlLogic id="1491845363" type="actuated" programID="0" offset="0">
        <phase duration="20" state="gGGGrGGrrrrgrrr" minDur="10" maxDur="30"/>
        <phase duration="20" state="grrrGrrrGGGgrrr" minDur="10" maxDur="30"/>
        <phase duration="20" state="grrrrrrrrrrgGGG" minDur="10" maxDur="30"/>
    </tlLogic>
    <tlLogic id="1491845393" type="actuated" programID="0" offset="0">
        <phase duration="20" state="gGGGrGGrrrrgrrr" minDur="10" maxDur="30"/>
        <phase duration="20" state="grrrGrrrGGGgrrr" minDur="10" maxDur="30"/>
        <phase duration="20" state="grrrrrrrrrrgGGG" minDur="10" maxDur="30"/>
    </tlLogic>
    <tlLogic id="1491845427" type="actuated" programID="0" offset="0">
        <phase duration="20" state="gGGGrrrgrrrrrrgGGGrr" minDur="10" maxDur="30"/>
        <phase duration="20" state="grrrGGGgrrrrrrgrrrGG" minDur="10" maxDur="30"/>
        <phase duration="20" state="grrrrrrgGGGrrrgrrrrr" minDur="10" maxDur="30"/>
        <phase duration="20" state="grrrrrrgrrrGGGgrrrrr" minDur="10" maxDur="30"/>
    </tlLogic>
    <tlLogic id="1783922846" type="actuated" programID="0" offset="0">
        <phase duration="20" state="grrrrrgGGGrrgrrrrrgGGGrr" minDur="10" maxDur="30"/>
        <phase duration="20" state="grrrrrgrrrGGgrrrrrgrrrGG" minDur="10" maxDur="30"/>
        <phase duration="20" state="gGGGrrgrrrrrgGGGrrgrrrrr" minDur="10" maxDur="30"/>
        <phase duration="20" state="grrrGGgrrrrrgrrrGGgrrrrr" minDur="10" maxDur="30"/>
    </tlLogic>
    <tlLogic id="1783922852" type="actuated" programID="0" offset="0">
        <phase duration="20" state="gGGGrGGrrrrgrrr" minDur="10" maxDur="30"/>
        <phase duration="20" state="grrrGrrrGGGgrrr" minDur="10" maxDur="30"/>
        <phase duration="20" state="grrrrrrrrrrgGGG" minDur="10" maxDur="30"/>
    </tlLogic>
    <tlLogic id="1783922854" type="actuated" programID="0" offset="0">
        <phase duration="20" state="gGGGrGGrrrrgrrr" minDur="10" maxDur="30"/>
        <phase duration="20" state="grrrGrrrGGGgrrr" minDur="10" maxDur="30"/>
        <phase duration="20" state="grrrrrrrrrrgGGG" minDur="10" maxDur="30"/>
    </tlLogic>
    <tlLogic id="1783922878" type="actuated" programID="0" offset="0">
        <phase duration="20" state="gGGGrGGrrrrgrrr" minDur="10" maxDur="30"/>
        <phase duration="20" state="grrrGrrrGGGgrrr" minDur="10" maxDur="30"/>
        <phase duration="20" state="grrrrrrrrrrgGGG" minDur="10" maxDur="30"/>
    </tlLogic>
    <tlLogic id="1982876360" type="actuated" programID="0" offset="0">
        <phase duration="20" state="gGGGrGGrrrrgrrr" minDur="10" maxDur="30"/>
        <phase duration="20" state="grrrGrrrGGGgrrr" minDur="10" maxDur="30"/>
        <phase duration="20" state="grrrrrrrrrrgGGG" minDur="10" maxDur="30"/>
    </tlLogic>
    <tlLogic id="1982876369" type="actuated" programID="0" offset="0">
        <phase duration="20" state="grrrrrgGGGrrgrrrrrgGGGrr" minDur="10" maxDur="30"/>
        <phase duration="20" state="grrrrrgrrrGGgrrrrrgrrrGG" minDur="10" maxDur="30"/>
        <phase duration="20" state="gGGGrrgrrrrrgGGGrrgrrrrr" minDur="10" maxDur="30"/>
        <phase duration="20" state="grrrGGgrrrrrgrrrGGgrrrrr" minDur="10" maxDur="30"/>
    </tlLogic>
    <tlLogic id="1982884402" type="actuated" programID="0" offset="0">
        <phase duration="20" state="gggGGGrrrr" minDur="10" maxDur="30"/>
        <phase duration="20" state="gggrrrGGGG" minDur="10" maxDur="30"/>
    </tlLogic>
    <tlLogic id="1982884410" type="actuated" programID="0" offset="0">
        <phase duration="20" state="grrrrrgGGGrrgrrrrrgGGGrr" minDur="10" maxDur="30"/>
        <phase duration="20" state="grrrrrgrrrGGgrrrrrgrrrGG" minDur="10" maxDur="30"/>
        <phase duration="20" state="gGGGrrgrrrrrgGGGrrgrrrrr" minDur="10" maxDur="30"/>
        <phase duration="20" state="grrrGGgrrrrrgrrrGGgrrrrr" minDur="10" maxDur="30"/>
    </tlLogic>
    <tlLogic id="1982884411" type="actuated" programID="0" offset="0">
        <phase duration="20" state="grrrrrgGGGrrgrrrrrgGGGrr" minDur="10" maxDur="30"/>
        <phase duration="20" state="grrrrrgrrrGGgrrrrrgrrrGG" minDur="10" maxDur="30"/>
        <phase duration="20" state="gGGGrrgrrrrrgGGGrrgrrrrr" minDur="10" maxDur="30"/>
        <phase duration="20" state="grrrGGgrrrrrgrrrGGgrrrrr" minDur="10" maxDur="30"/>
    </tlLogic>
    <tlLogic id="1982884412" type="actuated" programID="0" offset="0">
        <phase duration="20" state="gggGGGrrrr" minDur="10" maxDur="30"/>
        <phase duration="20" state="gggrrrGGGG" minDur="10" maxDur="30"/>
    </tlLogic>
    <tlLogic id="1982884413" type="actuated" programID="0" offset="0">
        <phase duration="20" state="gGGGrGGrrrrgrrr" minDur="10" maxDur="30"/>
        <phase duration="20" state="grrrGrrrGGGgrrr" minDur="10" maxDur="30"/>
        <phase duration="20" state="grrrrrrrrrrgGGG" minDur="10" maxDur="30"/>
    </tlLogic>
    <tlLogic id="1982884414" type="actuated" programID="0" offset="0">
        <phase duration="20" state="grrrrrgGGGrrgrrrrrgGGGrr" minDur="10" maxDur="30"/>
        <phase duration="20" state="grrrrrgrrrGGgrrrrrgrrrGG" minDur="10" maxDur="30"/>
        <phase duration="20" state="gGGGrrgrrrrrgGGGrrgrrrrr" minDur="10" maxDur="30"/>
        <phase duration="20" state="grrrGGgrrrrrgrrrGGgrrrrr" minDur="10" maxDur="30"/>
    </tlLogic>
    <tlLogic id="1982884415" type="actuated" programID="0" offset="0">
        <phase duration="20" state="gGGGrGGrrrrgrrr" minDur="10" maxDur="30"/>
        <phase duration="20" state="grrrGrrrGGGgrrr" minDur="10" maxDur="30"/>
        <phase duration="20" state="grrrrrrrrrrgGGG" minDur="10" maxDur="30"/>
    </tlLogic>
    <tlLogic id="2042400913" type="actuated" programID="0" offset="0">
        <phase duration="20" state="grrrrrgGGGrrgrrrrrgGGGrr" minDur="10" maxDur="30"/>
        <phase duration="20" state="grrrrrgrrrGGgrrrrrgrrrGG" minDur="10" maxDur="30"/>
        <phase duration="20" state="gGGGrrgrrrrrgGGGrrgrrrrr" minDur="10" maxDur="30"/>
        <phase duration="20" state="grrrGGgrrrrrgrrrGGgrrrrr" minDur="10" maxDur="30"/>
    </tlLogic>
    <tlLogic id="2042400915" type="actuated" programID="0" offset="0">
        <phase duration="20" state="gGGGrGGrrrrgrrr" minDur="10" maxDur="30"/>
        <phase duration="20" state="grrrGrrrGGGgrrr" minDur="10" maxDur="30"/>
        <phase duration="20" state="grrrrrrrrrrgGGG" minDur="10" maxDur="30"/>
    </tlLogic>
    <tlLogic id="2042400917" type="actuated" programID="0" offset="0">
        <phase duration="20" state="gggGGGrrrr" minDur="10" maxDur="30"/>
        <phase duration="20" state="gggrrrGGGG" minDur="10" maxDur="30"/>
    </tlLogic>
    <tlLogic id="2042400930" type="actuated" programID="0" offset="0">
        <phase duration="60" state="grrrgGGGrgrrr" minDur="30" maxDur="90"/>
    </tlLogic>
    <tlLogic id="2042400935" type="actuated" programID="0" offset="0">
        <phase duration="60" state="grrrgGGGrgrrr" minDur="30" maxDur="90"/>
    </tlLogic>
    <tlLogic id="2042400943" type="actuated" programID="0" offset="0">
        <phase duration="20" state="grrrrrgGGGrrgrrrrrgGGGrr" minDur="10" maxDur="30"/>
        <phase duration="20" state="grrrrrgrrrGGgrrrrrgrrrGG" minDur="10" maxDur="30"/>
        <phase duration="20" state="gGGGrrgrrrrrgGGGrrgrrrrr" minDur="10" maxDur="30"/>
        <phase duration="20" state="grrrGGgrrrrrgrrrGGgrrrrr" minDur="10" maxDur="30"/>
    </tlLogic>
    <tlLogic id="2042407645" type="actuated" programID="0" offset="0">
        <phase duration="20" state="grrrrrgGGGrrgrrrrrgGGGrr" minDur="10" maxDur="30"/>
        <phase duration="20" state="grrrrrgrrrGGgrrrrrgrrrGG" minDur="10" maxDur="30"/>
        <phase duration="20" state="gGGGrrgrrrrrgGGGrrgrrrrr" minDur="10" maxDur="30"/>
        <phase duration="20" state="grrrGGgrrrrrgrrrGGgrrrrr" minDur="10" maxDur="30"/>
    </tlLogic>
    <tlLogic id="2042441665" type="actuated" programID="0" offset="0">
        <phase duration="20" state="gGGGrGGrrrrgrrr" minDur="10" maxDur="30"/>
        <phase duration="20" state="grrrGrrrGGGgrrr" minDur="10" maxDur="30"/>
        <phase duration="20" state="grrrrrrrrrrgGGG" minDur="10" maxDur="30"/>
    </tlLogic>
    <tlLogic id="2042441671" type="actuated" programID="0" offset="0">
        <phase duration="20" state="grrrrrgGGGrrgrrrrrgGGGrr" minDur="10" maxDur="30"/>
        <phase duration="20" state="grrrrrgrrrGGgrrrrrgrrrGG" minDur="10" maxDur="30"/>
        <phase duration="20" state="gGGGrrgrrrrrgGGGrrgrrrrr" minDur="10" maxDur="30"/>
        <phase duration="20" state="grrrGGgrrrrrgrrrGGgrrrrr" minDur="10" maxDur="30"/>
    </tlLogic>
    <tlLogic id="2042461666" type="actuated" programID="0" offset="0">
        <phase duration="20" state="gGGGrGGrrrrgrrr" minDur="10" maxDur="30"/>
        <phase duration="20" state="grrrGrrrGGGgrrr" minDur="10" maxDur="30"/>
        <phase duration="20" state="grrrrrrrrrrgGGG" minDur="10" maxDur="30"/>
    </tlLogic>
    <tlLogic id="2042461668" type="actuated" programID="0" offset="0">
        <phase duration="20" state="grrrrrgGGGrrgrrrrrgGGGrr" minDur="10" maxDur="30"/>
        <phase duration="20" state="grrrrrgrrrGGgrrrrrgrrrGG" minDur="10" maxDur="30"/>
        <phase duration="20" state="gGGGrrgrrrrrgGGGrrgrrrrr" minDur="10" maxDur="30"/>
        <phase duration="20" state="grrrGGgrrrrrgrrrGGgrrrrr" minDur="10" maxDur="30"/>
    </tlLogic>
    <tlLogic id="2268752856" type="actuated" programID="0" offset="0">
        <phase duration="20" state="gGGGrGGrrrrgrrr" minDur="10" maxDur="30"/>
        <phase duration="20" state="grrrGrrrGGGgrrr" minDur="10" maxDur="30"/>
        <phase duration="20" state="grrrrrrrrrrgGGG" minDur="10" maxDur="30"/>
    </tlLogic>
    <tlLogic id="2268771702" type="actuated" programID="0" offset="0">
        <phase duration="20" state="gGGGrGGrrrrgrrr" minDur="10" maxDur="30"/>
        <phase duration="20" state="grrrGrrrGGGgrrr" minDur="10" maxDur="30"/>
        <phase duration="20" state="grrrrrrrrrrgGGG" minDur="10" maxDur="30"/>
    </tlLogic>
    <tlLogic id="2268995250" type="actuated" programID="0" offset="0">
        <phase duration="20" state="gGGGrGGrrrrgrrr" minDur="10" maxDur="30"/>
        <phase duration="20" state="grrrGrrrGGGgrrr" minDur="10" maxDur="30"/>
        <phase duration="20" state="grrrrrrrrrrgGGG" minDur="10" maxDur="30"/>
    </tlLogic>
    <tlLogic id="2268995259" type="actuated" programID="0" offset="0">
        <phase duration="20" state="gGGGrGGrrrrgrrr" minDur="10" maxDur="30"/>
        <phase duration="20" state="grrrGrrrGGGgrrr" minDur="10" maxDur="30"/>
        <phase duration="20" state="grrrrrrrrrrgGGG" minDur="10" maxDur="30"/>
    </tlLogic>
    <tlLogic id="2268995301" type="actuated" programID="0" offset="0">
        <phase duration="20" state="gGGGrGGrrrrgrrr" minDur="10" maxDur="30"/>
        <phase duration="20" state="grrrGrrrGGGgrrr" minDur="10" maxDur="30"/>
        <phase duration="20" state="grrrrrrrrrrgGGG" minDur="10" maxDur="30"/>
    </tlLogic>
    <tlLogic id="2269583664" type="actuated" programID="0" offset="0">
        <phase duration="20" state="gggGGGrrrr" minDur="10" maxDur="30"/>
        <phase duration="20" state="gggrrrGGGG" minDur="10" maxDur="30"/>
    </tlLogic>
    <tlLogic id="2269583672" type="actuated" programID="0" offset="0">
        <phase duration="20" state="grrrrrgGGGrrgrrrrrgGGGrr" minDur="10" maxDur="30"/>
        <phase duration="20" state="grrrrrgrrrGGgrrrrrgrrrGG" minDur="10" maxDur="30"/>
        <phase duration="20" state="gGGGrrgrrrrrgGGGrrgrrrrr" minDur="10" maxDur="30"/>
        <phase duration="20" state="grrrGGgrrrrrgrrrGGgrrrrr" minDur="10" maxDur="30"/>
    </tlLogic>
    <tlLogic id="2367560889" type="actuated" programID="0" offset="0">
        <phase duration="20" state="gGGGrGGrrrrgrrr" minDur="10" maxDur="30"/>
        <phase duration="20" state="grrrGrrrGGGgrrr" minDur="10" maxDur="30"/>
        <phase duration="20" state="grrrrrrrrrrgGGG" minDur="10" maxDur="30"/>
    </tlLogic>
    <tlLogic id="2367560907" type="actuated" programID="0" offset="0">
        <phase duration="20" state="gGGGrGGrrrrgrrr" minDur="10" maxDur="30"/>
        <phase duration="20" state="grrrGrrrGGGgrrr" minDur="10" maxDur="30"/>
        <phase duration="20" state="grrrrrrrrrrgGGG" minDur="10" maxDur="30"/>
    </tlLogic>
    <tlLogic id="2367560911" type="actuated" programID="0" offset="0">
        <phase duration="20" state="gGGGrGGrrrrgrrr" minDur="10" maxDur="30"/>
        <phase duration="20" state="grrrGrrrGGGgrrr" minDur="10" maxDur="30"/>
        <phase duration="20" state="grrrrrrrrrrgGGG" minDur="10" maxDur="30"/>
    </tlLogic>
    <tlLogic id="2367560928" type="actuated" programID="0" offset="0">
        <phase duration="20" state="gGGGrGGrrrrgrrr" minDur="10" maxDur="30"/>
        <phase duration="20" state="grrrGrrrGGGgrrr" minDur="10" maxDur="30"/>
        <phase duration="20" state="grrrrrrrrrrgGGG" minDur="10" maxDur="30"/>
    </tlLogic>
    <tlLogic id="2367560931" type="actuated" programID="0" offset="0">
        <phase duration="20" state="gGGGrGGrrrrgrrr" minDur="10" maxDur="30"/>
        <phase duration="20" state="grrrGrrrGGGgrrr" minDur="10" maxDur="30"/>
        <phase duration="20" state="grrrrrrrrrrgGGG" minDur="10" maxDur="30"/>
    </tlLogic>
    <tlLogic id="2367560934" type="actuated" programID="0" offset="0">
        <phase duration="20" state="gggGGGrrrr" minDur="10" maxDur="30"/>
        <phase duration="20" state="gggrrrGGGG" minDur="10" maxDur="30"/>
    </tlLogic>
    <tlLogic id="2367560935" type="actuated" programID="0" offset="0">
        <phase duration="20" state="gggGGGrrrr" minDur="10" maxDur="30"/>
        <phase duration="20" state="gggrrrGGGG" minDur="10" maxDur="30"/>
    </tlLogic>
    <tlLogic id="2367560935" type="actuated" programID="1" offset="0">
        <phase duration="20" state="gggGGGrrrr" minDur="10" maxDur="30"/>
        <phase duration="20" state="gggrrrGGGG" minDur="10" maxDur="30"/>
    </tlLogic>
    <tlLogic id="2367560940" type="actuated" programID="0" offset="0">
        <phase duration="20" state="gGGGrGGrrrrgrrr" minDur="10" maxDur="30"/>
        <phase duration="20" state="grrrGrrrGGGgrrr" minDur="10" maxDur="30"/>
        <phase duration="20" state="grrrrrrrrrrgGGG" minDur="10" maxDur="30"/>
    </tlLogic>
    <tlLogic id="2367560947" type="actuated" programID="0" offset="0">
        <phase duration="20" state="grrrrrgGGGrrgrrrrrgGGGrr" minDur="10" maxDur="30"/>
        <phase duration="20" state="grrrrrgrrrGGgrrrrrgrrrGG" minDur="10" maxDur="30"/>
        <phase duration="20" state="gGGGrrgrrrrrgGGGrrgrrrrr" minDur="10" maxDur="30"/>
        <phase duration="20" state="grrrGGgrrrrrgrrrGGgrrrrr" minDur="10" maxDur="30"/>
    </tlLogic>
    <tlLogic id="2367574755" type="actuated" programID="0" offset="0">
        <phase duration="20" state="gGGGrGGrrrrgrrr" minDur="10" maxDur="30"/>
        <phase duration="20" state="grrrGrrrGGGgrrr" minDur="10" maxDur="30"/>
        <phase duration="20" state="grrrrrrrrrrgGGG" minDur="10" maxDur="30"/>
    </tlLogic>
    <tlLogic id="2367574809" type="actuated" programID="0" offset="0">
        <phase duration="20" state="gGGGrGGrrrrgrrr" minDur="10" maxDur="30"/>
        <phase duration="20" state="grrrGrrrGGGgrrr" minDur="10" maxDur="30"/>
        <phase duration="20" state="grrrrrrrrrrgGGG" minDur="10" maxDur="30"/>
    </tlLogic>
    <tlLogic id="2367574818" type="actuated" programID="0" offset="0">
        <phase duration="20" state="gGGGrGGrrrrgrrr" minDur="10" maxDur="30"/>
        <phase duration="20" state="grrrGrrrGGGgrrr" minDur="10" maxDur="30"/>
        <phase duration="20" state="grrrrrrrrrrgGGG" minDur="10" maxDur="30"/>
    </tlLogic>
    <tlLogic id="2376737477" type="actuated" programID="0" offset="0">
        <phase duration="20" state="gGGGrGGrrrrgrrr" minDur="10" maxDur="30"/>
        <phase duration="20" state="grrrGrrrGGGgrrr" minDur="10" maxDur="30"/>
        <phase duration="20" state="grrrrrrrrrrgGGG" minDur="10" maxDur="30"/>
    </tlLogic>
    <tlLogic id="2376737490" type="actuated" programID="0" offset="0">
        <phase duration="20" state="grrrrrgGGGrrgrrrrrgGGGrr" minDur="10" maxDur="30"/>
        <phase duration="20" state="grrrrrgrrrGGgrrrrrgrrrGG" minDur="10" maxDur="30"/>
        <phase duration="20" state="gGGGrrgrrrrrgGGGrrgrrrrr" minDur="10" maxDur="30"/>
        <phase duration="20" state="grrrGGgrrrrrgrrrGGgrrrrr" minDur="10" maxDur="30"/>
    </tlLogic>
    <tlLogic id="2376737492" type="actuated" programID="0" offset="0">
        <phase duration="20" state="grrrrrgGGGrrgrrrrrgGGGrr" minDur="10" maxDur="30"/>
        <phase duration="20" state="grrrrrgrrrGGgrrrrrgrrrGG" minDur="10" maxDur="30"/>
        <phase duration="20" state="gGGGrrgrrrrrgGGGrrgrrrrr" minDur="10" maxDur="30"/>
        <phase duration="20" state="grrrGGgrrrrrgrrrGGgrrrrr" minDur="10" maxDur="30"/>
    </tlLogic>
    <tlLogic id="2376737493" type="actuated" programID="0" offset="0">
        <phase duration="20" state="grrrrrgGGGrrgrrrrrgGGGrr" minDur="10" maxDur="30"/>
        <phase duration="20" state="grrrrrgrrrGGgrrrrrgrrrGG" minDur="10" maxDur="30"/>
        <phase duration="20" state="gGGGrrgrrrrrgGGGrrgrrrrr" minDur="10" maxDur="30"/>
        <phase duration="20" state="grrrGGgrrrrrgrrrGGgrrrrr" minDur="10" maxDur="30"/>
    </tlLogic>
    <tlLogic id="2376737494" type="actuated" programID="0" offset="0">
        <phase duration="20" state="gGGGrGGrrrrgrrr" minDur="10" maxDur="30"/>
        <phase duration="20" state="grrrGrrrGGGgrrr" minDur="10" maxDur="30"/>
        <phase duration="20" state="grrrrrrrrrrgGGG" minDur="10" maxDur="30"/>
    </tlLogic>
    <tlLogic id="2376737494" type="actuated" programID="1" offset="0">
        <phase duration="20" state="gGGGrGGrrrrgrrr" minDur="10" maxDur="30"/>
        <phase duration="20" state="grrrGrrrGGGgrrr" minDur="10" maxDur="30"/>
        <phase duration="20" state="grrrrrrrrrrgGGG" minDur="10" maxDur="30"/>
    </tlLogic>
    <tlLogic id="2376737499" type="actuated" programID="0" offset="0">
        <phase duration="20" state="grrrrrgGGGrrgrrrrrgGGGrr" minDur="10" maxDur="30"/>
        <phase duration="20" state="grrrrrgrrrGGgrrrrrgrrrGG" minDur="10" maxDur="30"/>
        <phase duration="20" state="gGGGrrgrrrrrgGGGrrgrrrrr" minDur="10" maxDur="30"/>
        <phase duration="20" state="grrrGGgrrrrrgrrrGGgrrrrr" minDur="10" maxDur="30"/>
    </tlLogic>
    <tlLogic id="2376737510" type="actuated" programID="0" offset="0">
        <phase duration="20" state="gGGGrGGrrrrgrrr" minDur="10" maxDur="30"/>
        <phase duration="20" state="grrrGrrrGGGgrrr" minDur="10" maxDur="30"/>
        <phase duration="20" state="grrrrrrrrrrgGGG" minDur="10" maxDur="30"/>
    </tlLogic>
    <tlLogic id="2376737512" type="actuated" programID="0" offset="0">
        <phase duration="20" state="gGGGrGGrrrrgrrr" minDur="10" maxDur="30"/>
        <phase duration="20" state="grrrGrrrGGGgrrr" minDur="10" maxDur="30"/>
        <phase duration="20" state="grrrrrrrrrrgGGG" minDur="10" maxDur="30"/>
    </tlLogic>
    <tlLogic id="2376751152" type="actuated" programID="0" offset="0">
        <phase duration="20" state="gGGGrGGrrrrgrrr" minDur="10" maxDur="30"/>
        <phase duration="20" state="grrrGrrrGGGgrrr" minDur="10" maxDur="30"/>
        <phase duration="20" state="grrrrrrrrrrgGGG" minDur="10" maxDur="30"/>
    </tlLogic>
    <tlLogic id="2376751183" type="actuated" programID="0" offset="0">
        <phase duration="20" state="grrrrrgGGGrrgrrrrrgGGGrr" minDur="10" maxDur="30"/>
        <phase duration="20" state="grrrrrgrrrGGgrrrrrgrrrGG" minDur="10" maxDur="30"/>
        <phase duration="20" state="gGGGrrgrrrrrgGGGrrgrrrrr" minDur="10" maxDur="30"/>
        <phase duration="20" state="grrrGGgrrrrrgrrrGGgrrrrr" minDur="10" maxDur="30"/>
    </tlLogic>
    <tlLogic id="2376751184" type="actuated" programID="0" offset="0">
        <phase duration="20" state="gGGGrGGrrrrgrrr" minDur="10" maxDur="30"/>
        <phase duration="20" state="grrrGrrrGGGgrrr" minDur="10" maxDur="30"/>
        <phase duration="20" state="grrrrrrrrrrgGGG" minDur="10" maxDur="30"/>
    </tlLogic>
    <tlLogic id="2380017676" type="actuated" programID="0" offset="0">
        <phase duration="20" state="gGGGrGGrrrrgrrr" minDur="10" maxDur="30"/>
        <phase duration="20" state="grrrGrrrGGGgrrr" minDur="10" maxDur="30"/>
        <phase duration="20" state="grrrrrrrrrrgGGG" minDur="10" maxDur="30"/>
    </tlLogic>
    <tlLogic id="2380017696" type="actuated" programID="0" offset="0">
        <phase duration="20" state="grrrrrgGGGrrgrrrrrgGGGrr" minDur="10" maxDur="30"/>
        <phase duration="20" state="grrrrrgrrrGGgrrrrrgrrrGG" minDur="10" maxDur="30"/>
        <phase duration="20" state="gGGGrrgrrrrrgGGGrrgrrrrr" minDur="10" maxDur="30"/>
        <phase duration="20" state="grrrGGgrrrrrgrrrGGgrrrrr" minDur="10" maxDur="30"/>
    </tlLogic>
    <tlLogic id="2380017699" type="actuated" programID="0" offset="0">
        <phase duration="20" state="grrrrrgGGGrrgrrrrrgGGGrr" minDur="10" maxDur="30"/>
        <phase duration="20" state="grrrrrgrrrGGgrrrrrgrrrGG" minDur="10" maxDur="30"/>
        <phase duration="20" state="gGGGrrgrrrrrgGGGrrgrrrrr" minDur="10" maxDur="30"/>
        <phase duration="20" state="grrrGGgrrrrrgrrrGGgrrrrr" minDur="10" maxDur="30"/>
    </tlLogic>
    <tlLogic id="2380017753" type="actuated" programID="0" offset="0">
        <phase duration="20" state="gGGGrGGrrrrgrrr" minDur="10" maxDur="30"/>
        <phase duration="20" state="grrrGrrrGGGgrrr" minDur="10" maxDur="30"/>
        <phase duration="20" state="grrrrrrrrrrgGGG" minDur="10" maxDur="30"/>
    </tlLogic>
    <tlLogic id="2380017771" type="actuated" programID="0" offset="0">
        <phase duration="20" state="gGGGrGGrrrrgrrr" minDur="10" maxDur="30"/>
        <phase duration="20" state="grrrGrrrGGGgrrr" minDur="10" maxDur="30"/>
        <phase duration="20" state="grrrrrrrrrrgGGG" minDur="10" maxDur="30"/>
    </tlLogic>
    <tlLogic id="2380017781" type="actuated" programID="0" offset="0">
        <phase duration="20" state="grrrrrgGGGrrgrrrrrgGGGrr" minDur="10" maxDur="30"/>
        <phase duration="20" state="grrrrrgrrrGGgrrrrrgrrrGG" minDur="10" maxDur="30"/>
        <phase duration="20" state="gGGGrrgrrrrrgGGGrrgrrrrr" minDur="10" maxDur="30"/>
        <phase duration="20" state="grrrGGgrrrrrgrrrGGgrrrrr" minDur="10" maxDur="30"/>
    </tlLogic>
    <tlLogic id="2488193951" type="actuated" programID="0" offset="0">
        <phase duration="20" state="grrrrrgGGGrrgrrrrrgGGGrr" minDur="10" maxDur="30"/>
        <phase duration="20" state="grrrrrgrrrGGgrrrrrgrrrGG" minDur="10" maxDur="30"/>
        <phase duration="20" state="gGGGrrgrrrrrgGGGrrgrrrrr" minDur="10" maxDur="30"/>
        <phase duration="20" state="grrrGGgrrrrrgrrrGGgrrrrr" minDur="10" maxDur="30"/>
    </tlLogic>