<?xml version="1.0" encoding="UTF-8"?>

<!-- generated on Thu Oct 31 16:38:32 2019 by Eclipse SUMO netconvert Version 1.2.0
<configuration xmlns:xsi="http://www.w3.org/2001/XMLSchema-instance" xsi:noNamespaceSchemaLocation="http://sumo.dlr.de/xsd/netconvertConfiguration.xsd">

    <input>
        <sumo-net-file value="/Users/zhuliwen/Downloads/福田区和宝安区路网/FuTian/FuTian.net.xml"/>
    </input>

    <output>
        <plain-output-prefix value="FuTian"/>
        <output.street-names value="true"/>
    </output>

    <projection>
        <proj.plain-geo value="true"/>
    </projection>

    <processing>
        <geometry.max-grade.fix value="false"/>
        <offset.disable-normalization value="true"/>
        <lefthand value="false"/>
    </processing>

    <junctions>
        <no-turnarounds value="true"/>
        <junctions.corner-detail value="5"/>
        <junctions.limit-turn-speed value="5.5"/>
        <rectangular-lane-cut value="false"/>
    </junctions>

    <pedestrian>
        <walkingareas value="false"/>
    </pedestrian>

</configuration>
-->

<nodes version="1.1" xmlns:xsi="http://www.w3.org/2001/XMLSchema-instance" xsi:noNamespaceSchemaLocation="http://sumo.dlr.de/xsd/nodes_file.xsd">
    <node id="-564042521#1-AddedOnRampNode" x="114.066869" y="22.523957" type="priority"/>
    <node id="1114538640" x="114.050782" y="22.531693" type="priority"/>
    <node id="1114538641" x="114.049870" y="22.531684" type="priority"/>
    <node id="1114538642" x="114.050323" y="22.531690" type="priority"/>
    <node id="1114538647" x="114.050107" y="22.531947" type="priority"/>
    <node id="1116467136" x="114.048291" y="22.531645" type="priority"/>
    <node id="1116467141" x="114.050222" y="22.531527" type="priority"/>
    <node id="1116467143" x="114.048921" y="22.531662" type="priority"/>
    <node id="1116467144" x="114.047618" y="22.531644" type="priority"/>
    <node id="1116469154" x="114.050912" y="22.533481" type="priority"/>
    <node id="1116469155" x="114.050832" y="22.525828" type="priority"/>
    <node id="1116469157" x="114.044570" y="22.536018" type="priority"/>
    <node id="1116469162" x="114.044183" y="22.530095" type="priority"/>
    <node id="1116469164" x="114.047876" y="22.536822" type="priority"/>
    <node id="1116469165" x="114.049615" y="22.525816" type="traffic_light" tl="1116469165"/>
    <node id="1116469168" x="114.042553" y="22.528769" type="priority"/>
    <node id="1116469169" x="114.043727" y="22.528901" type="traffic_light" tl="1116469169"/>
    <node id="1116469170" x="114.045993" y="22.533380" type="traffic_light" tl="1116469170"/>
    <node id="1116469175" x="114.044316" y="22.528968" type="priority"/>
    <node id="1116469177" x="114.049583" y="22.527629" type="traffic_light" tl="1116469177"/>
    <node id="1116469184" x="114.047683" y="22.536639" type="priority"/>
    <node id="1116469186" x="114.042956" y="22.527457" type="traffic_light" tl="1116469186"/>
    <node id="1116469194" x="114.051258" y="22.533233" type="priority"/>
    <node id="1116469195" x="114.047884" y="22.536387" type="priority"/>
    <node id="1116469196" x="114.045194" y="22.527596" type="traffic_light" tl="1116469196"/>
    <node id="1116469206" x="114.042179" y="22.529943" type="priority"/>
    <node id="1116469213" x="114.047949" y="22.532246" type="traffic_light" tl="1116469213"/>
    <node id="1116469217" x="114.044588" y="22.534438" type="priority"/>
    <node id="1116469223" x="114.044774" y="22.526686" type="priority"/>
    <node id="1116469224" x="114.042080" y="22.530079" type="priority"/>
    <node id="1116469225" x="114.051379" y="22.527642" type="traffic_light" tl="1116469225"/>
    <node id="1116492708" x="114.040946" y="22.544427" type="priority"/>
    <node id="1116492710" x="114.043769" y="22.550410" type="priority"/>
    <node id="1116492715" x="114.043285" y="22.550350" type="priority"/>
    <node id="1116492736" x="114.050625" y="22.550182" type="right_before_left"/>
    <node id="1116492738" x="114.043673" y="22.550264" type="priority"/>
    <node id="1116492753" x="114.044853" y="22.553569" type="priority"/>
    <node id="1116492755" x="114.051686" y="22.551154" type="priority"/>
    <node id="1116492763" x="114.044283" y="22.552943" type="priority"/>
    <node id="1116492767" x="114.041877" y="22.542500" type="priority"/>
    <node id="1116492773" x="114.050959" y="22.550562" type="priority"/>
    <node id="1116492777" x="114.051094" y="22.550696" type="priority"/>
    <node id="1116492784" x="114.041153" y="22.542618" type="priority"/>
    <node id="1116492790" x="114.044731" y="22.553571" type="right_before_left"/>
    <node id="1116492795" x="114.044850" y="22.551741" type="priority"/>
    <node id="1116492807" x="114.044314" y="22.551758" type="priority"/>
    <node id="1116492812" x="114.043490" y="22.550349" type="priority"/>
    <node id="1116492826" x="114.050967" y="22.550074" type="priority"/>
    <node id="1116492833" x="114.050289" y="22.551093" type="priority"/>
    <node id="1116492838" x="114.044150" y="22.550039" type="priority"/>
    <node id="1116492844" x="114.050956" y="22.550716" type="priority"/>
    <node id="1116501195" x="114.035324" y="22.543770" type="traffic_light" tl="1116501195"/>
    <node id="1116501198" x="114.033888" y="22.548104" type="priority"/>
    <node id="1116501206" x="114.036953" y="22.541877" type="priority"/>
    <node id="1116501212" x="114.025160" y="22.545575" type="dead_end"/>
    <node id="1116501223" x="114.043054" y="22.542273" type="priority"/>
    <node id="1116501225" x="114.039865" y="22.543838" type="right_before_left"/>
    <node id="1116501228" x="114.034934" y="22.545804" type="priority"/>
    <node id="1116501232" x="114.032644" y="22.545416" type="priority"/>
    <node id="1116501234" x="114.039155" y="22.542396" type="priority"/>
    <node id="1116501237" x="114.043959" y="22.542288" type="priority"/>
    <node id="1116501248" x="114.039124" y="22.546457" type="traffic_light" tl="1116501248"/>
    <node id="1116501266" x="114.043914" y="22.542522" type="priority"/>
    <node id="1116501272" x="114.041447" y="22.546527" type="traffic_light" tl="1116501272"/>
    <node id="1116501282" x="114.025161" y="22.545407" type="dead_end"/>
    <node id="1116501297" x="114.043034" y="22.542507" type="priority"/>
    <node id="1116501304" x="114.039164" y="22.544392" type="traffic_light" tl="1116501304"/>
    <node id="1116501311" x="114.040995" y="22.542608" type="priority"/>
    <node id="1116501321" x="114.032162" y="22.548001" type="priority"/>
    <node id="1116501322" x="114.037877" y="22.546392" type="traffic_light" tl="1116501322"/>
    <node id="1116501324" x="114.043188" y="22.543120" type="priority"/>
    <node id="1129153185" x="114.058892" y="22.520224" type="priority"/>
    <node id="1129158408" x="114.056938" y="22.527366" type="priority"/>
    <node id="1129160651" x="114.053807" y="22.530554" type="priority"/>
    <node id="1129162830" x="114.056908" y="22.530810" type="priority"/>
    <node id="130965707#3-AddedOffRampNode" x="114.060074" y="22.524595" type="priority"/>
    <node id="135913061#1-AddedOffRampNode" x="114.037859" y="22.530919" type="priority"/>
    <node id="135913061#3-AddedOnRampNode" x="114.035388" y="22.530672" type="priority"/>
    <node id="1441786497" x="114.061020" y="22.521238" type="priority"/>
    <node id="1491845063" x="114.042391" y="22.527334" type="traffic_light" tl="1491845063"/>
    <node id="1491845065" x="114.037440" y="22.527482" type="traffic_light" tl="1491845065"/>
    <node id="1491845092" x="114.038313" y="22.529500" type="traffic_light" tl="1491845092"/>
    <node id="1491845101" x="114.040883" y="22.529841" type="traffic_light" tl="1491845101"/>
    <node id="1491845118" x="114.033421" y="22.529935" type="priority"/>
    <node id="1491845119" x="114.034113" y="22.530005" type="priority"/>
    <node id="1491845120" x="114.043582" y="22.530109" type="priority"/>
    <node id="1491845137" x="114.035963" y="22.530181" type="priority"/>
    <node id="1491845144" x="114.044554" y="22.530242" type="priority"/>
    <node id="1491845161" x="114.038201" y="22.530420" type="priority"/>
    <node id="1491845185" x="114.037129" y="22.530483" type="priority"/>
    <node id="1491845201" x="114.028507" y="22.530661" type="priority"/>
    <node id="1491845212" x="114.041916" y="22.530650" type="priority"/>
    <node id="1491845221" x="114.040759" y="22.530719" type="priority"/>
    <node id="1491845235" x="114.036354" y="22.530767" type="priority"/>
    <node id="1491845238" x="114.041482" y="22.530837" type="priority"/>
    <node id="1491845240" x="114.036893" y="22.530820" type="priority"/>
    <node id="1491845252" x="114.040442" y="22.530836" type="priority"/>
    <node id="1491845269" x="114.042485" y="22.530861" type="priority"/>
    <node id="1491845270" x="114.042140" y="22.530807" type="priority"/>
    <node id="1491845278" x="114.042539" y="22.530972" type="priority"/>
    <node id="1491845282" x="114.036862" y="22.531026" type="priority"/>
    <node id="1491845288" x="114.039108" y="22.531049" type="priority"/>
    <node id="1491845294" x="114.041450" y="22.531233" type="priority"/>
    <node id="1491845306" x="114.040709" y="22.531248" type="priority"/>
    <node id="1491845309" x="114.042415" y="22.531430" type="priority"/>
    <node id="1491845357" x="114.040565" y="22.533252" type="priority"/>
    <node id="1491845363" x="114.041065" y="22.533538" type="traffic_light" tl="1491845363"/>
    <node id="1491845371" x="114.043943" y="22.533749" type="priority"/>
    <node id="1491845390" x="114.044191" y="22.533949" type="priority"/>
    <node id="1491845393" x="114.042117" y="22.533992" type="traffic_light" tl="1491845393"/>
    <node id="1491845404" x="114.043934" y="22.534140" type="priority"/>
    <node id="1491845427" x="114.043913" y="22.534646" type="traffic_light" tl="1491845427"/>
    <node id="1491845432" x="114.044801" y="22.534720" type="priority"/>
    <node id="1491845466" x="114.043672" y="22.537533" type="priority"/>
    <node id="1491845479" x="114.044112" y="22.537657" type="priority"/>
    <node id="1491845494" x="114.044305" y="22.537899" type="priority"/>
    <node id="1491845594" x="114.043341" y="22.541681" type="priority"/>
    <node id="1491845601" x="114.041101" y="22.542086" type="priority"/>
    <node id="1491845610" x="114.041804" y="22.542251" type="priority"/>
    <node id="1492216918" x="114.062476" y="22.520366" type="dead_end"/>
    <node id="1492217094" x="114.067402" y="22.523762" type="dead_end"/>
    <node id="1492217101" x="114.066007" y="22.523708" type="priority"/>
    <node id="1492217161" x="114.066877" y="22.523954" type="priority"/>
    <node id="1492217188" x="114.065968" y="22.524292" type="priority"/>
    <node id="160131328#3-AddedOnRampNode" x="114.034418" y="22.554284" type="priority"/>
    <node id="1699066584" x="114.077844" y="22.533325" type="dead_end"/>
    <node id="1703698695" x="114.065769" y="22.551590" type="right_before_left"/>
    <node id="1703698705" x="114.066064" y="22.551739" type="right_before_left"/>
    <node id="1703698721" x="114.067222" y="22.553271" type="right_before_left"/>
    <node id="1703698726" x="114.065781" y="22.551813" type="right_before_left"/>
    <node id="1703698731" x="114.065910" y="22.551588" type="right_before_left"/>
    <node id="1703698733" x="114.067246" y="22.552467" type="right_before_left"/>
    <node id="1703715893" x="114.064368" y="22.552200" type="priority"/>
    <node id="1703715896" x="114.064327" y="22.553361" type="priority"/>
    <node id="1703715901" x="114.064342" y="22.551787" type="priority"/>
    <node id="1703715906" x="114.063730" y="22.552128" type="right_before_left"/>
    <node id="1703715915" x="114.065007" y="22.552156" type="priority"/>
    <node id="1703715916" x="114.063930" y="22.552950" type="priority"/>
    <node id="1703715918" x="114.064326" y="22.551547" type="priority"/>
    <node id="1703725326" x="114.065423" y="22.554461" type="priority"/>
    <node id="1709815279" x="114.045093" y="22.594861" type="dead_end"/>
    <node id="1722054709" x="114.040641" y="22.556281" type="priority"/>
    <node id="1783922631" x="114.056564" y="22.519252" type="priority"/>
    <node id="1783922648" x="114.057825" y="22.520190" type="priority"/>
    <node id="1783922691" x="114.056497" y="22.520687" type="priority"/>
    <node id="1783922693" x="114.057809" y="22.520705" type="priority"/>
    <node id="1783922705" x="114.058396" y="22.520991" type="priority"/>
    <node id="1783922835" x="114.059325" y="22.523578" type="priority"/>
    <node id="1783922846" x="114.058521" y="22.523654" type="traffic_light" tl="1783922846"/>
    <node id="1783922848" x="114.057999" y="22.523666" type="priority"/>
    <node id="1783922850" x="114.057352" y="22.523682" type="priority"/>
    <node id="1783922852" x="114.056537" y="22.523690" type="traffic_light" tl="1783922852"/>
    <node id="1783922854" x="114.057039" y="22.523690" type="traffic_light" tl="1783922854"/>
    <node id="1783922878" x="114.058454" y="22.525120" type="traffic_light" tl="1783922878"/>
    <node id="1783922893" x="114.060393" y="22.543435" type="priority"/>
    <node id="1783922945" x="114.062687" y="22.545274" type="priority"/>
    <node id="1783922968" x="114.055406" y="22.545483" type="priority"/>
    <node id="1812925762" x="114.058448" y="22.552576" type="right_before_left"/>
    <node id="1812925769" x="114.064050" y="22.537559" type="priority"/>
    <node id="1812925828" x="114.069959" y="22.538599" type="dead_end"/>
    <node id="1812925868" x="114.069954" y="22.538686" type="dead_end"/>
    <node id="1812925899" x="114.065574" y="22.538124" type="priority"/>
    <node id="1842898699" x="114.058618" y="22.551578" type="priority"/>
    <node id="1842898709" x="114.062196" y="22.551651" type="priority"/>
    <node id="1842898737" x="114.044615" y="22.550911" type="priority"/>
    <node id="1842898738" x="114.044340" y="22.549285" type="priority"/>
    <node id="1842903132" x="114.051363" y="22.552837" type="right_before_left"/>
    <node id="1842903208" x="114.050684" y="22.551298" type="priority"/>
    <node id="1842903228" x="114.050213" y="22.557189" type="priority"/>
    <node id="1842903313" x="114.048658" y="22.554511" type="priority"/>
    <node id="1933843897" x="114.062652" y="22.549164" type="priority"/>
    <node id="1933843909" x="114.062295" y="22.549568" type="priority"/>
    <node id="1933843923" x="114.053122" y="22.551196" type="priority"/>
    <node id="1933843924" x="114.055724" y="22.551237" type="priority"/>
    <node id="1947291240" x="113.892575" y="22.482313" type="dead_end"/>
    <node id="1982874921" x="114.060859" y="22.542059" type="priority"/>
    <node id="1982876346" x="114.064659" y="22.533860" type="priority"/>
    <node id="1982876353" x="114.065257" y="22.531994" type="priority"/>
    <node id="1982876355" x="114.065638" y="22.538005" type="priority"/>
    <node id="1982876360" x="114.064106" y="22.533862" type="traffic_light" tl="1982876360"/>
    <node id="1982876366" x="114.064640" y="22.535304" type="priority"/>
    <node id="1982876369" x="114.064082" y="22.536089" type="traffic_light" tl="1982876369"/>
    <node id="1982876590" x="114.063046" y="22.535916" type="priority"/>
    <node id="1982876592" x="114.064664" y="22.535666" type="priority"/>
    <node id="1982876596" x="114.067123" y="22.541526" type="priority"/>
    <node id="1982876944" x="114.060612" y="22.543442" type="priority"/>
    <node id="1982876946" x="114.060639" y="22.542057" type="priority"/>
    <node id="1982879352" x="114.044295" y="22.537367" type="priority"/>
    <node id="1982884398" x="114.044622" y="22.533142" type="priority"/>
    <node id="1982884401" x="114.044617" y="22.533631" type="priority"/>
    <node id="1982884402" x="114.046870" y="22.525780" type="traffic_light" tl="1982884402"/>
    <node id="1982884408" x="114.048094" y="22.531070" type="priority"/>
    <node id="1982884409" x="114.046775" y="22.531070" type="priority"/>
    <node id="1982884410" x="114.049558" y="22.528997" type="traffic_light" tl="1982884410"/>
    <node id="1982884411" x="114.046837" y="22.527608" type="traffic_light" tl="1982884411"/>
    <node id="1982884412" x="114.048541" y="22.525802" type="traffic_light" tl="1982884412"/>
    <node id="1982884413" x="114.048502" y="22.528983" type="traffic_light" tl="1982884413"/>
    <node id="1982884414" x="114.048519" y="22.527621" type="traffic_light" tl="1982884414"/>
    <node id="1982884415" x="114.054189" y="22.524209" type="traffic_light" tl="1982884415"/>
    <node id="2042184667" x="114.065569" y="22.552194" type="priority"/>
    <node id="2042184673" x="114.064327" y="22.554434" type="priority"/>
    <node id="2042184681" x="114.064361" y="22.552084" type="priority"/>
    <node id="2042184685" x="114.063096" y="22.552159" type="priority"/>
    <node id="2042184689" x="114.064314" y="22.551363" type="priority"/>
    <node id="2042191605" x="114.065668" y="22.551020" type="dead_end"/>
    <node id="2042191611" x="114.065985" y="22.551248" type="priority"/>
    <node id="2042191613" x="114.065706" y="22.551364" type="dead_end"/>
    <node id="2042191619" x="114.066047" y="22.551510" type="priority"/>
    <node id="2042191621" x="114.063867" y="22.552875" type="priority"/>
    <node id="2042191623" x="114.063718" y="22.551844" type="priority"/>
    <node id="2042400913" x="114.035195" y="22.527734" type="traffic_light" tl="2042400913"/>
    <node id="2042400915" x="114.037230" y="22.529385" type="traffic_light" tl="2042400915"/>
    <node id="2042400917" x="114.033935" y="22.525606" type="traffic_light" tl="2042400917"/>
    <node id="2042400930" x="114.038893" y="22.524310" type="traffic_light" tl="2042400930"/>
    <node id="2042400935" x="114.042773" y="22.522833" type="traffic_light" tl="2042400935"/>
    <node id="2042400943" x="114.036480" y="22.525910" type="traffic_light" tl="2042400943"/>
    <node id="2042407633" x="114.038478" y="22.515671" type="dead_end"/>
    <node id="2042407645" x="114.041190" y="22.523605" type="traffic_light" tl="2042407645"/>
    <node id="2042407648" x="114.038361" y="22.515727" type="dead_end"/>
    <node id="2042441665" x="114.041340" y="22.526152" type="traffic_light" tl="2042441665"/>
    <node id="2042441671" x="114.034723" y="22.526858" type="traffic_light" tl="2042441671"/>
    <node id="2042441675" x="114.033766" y="22.527375" type="priority"/>
    <node id="2042459442" x="114.033028" y="22.561808" type="priority"/>
    <node id="2042461662" x="114.043221" y="22.543715" type="priority"/>
    <node id="2042461666" x="114.042064" y="22.543241" type="traffic_light" tl="2042461666"/>
    <node id="2042461668" x="114.042037" y="22.544443" type="traffic_light" tl="2042461668"/>
    <node id="2044316566" x="114.057961" y="22.539615" type="priority"/>
    <node id="2044316568" x="114.058125" y="22.539602" type="priority"/>
    <node id="2044316570" x="114.059490" y="22.540276" type="priority"/>
    <node id="2045551693" x="114.040333" y="22.531413" type="dead_end"/>
    <node id="2045551700" x="114.056595" y="22.531138" type="dead_end"/>
    <node id="2045551702" x="114.052160" y="22.531934" type="dead_end"/>
    <node id="2045551729" x="114.052168" y="22.531022" type="dead_end"/>
    <node id="2045551741" x="114.056584" y="22.532008" type="dead_end"/>
    <node id="2045551743" x="114.040434" y="22.530487" type="dead_end"/>
    <node id="220799852#1-AddedOnRampNode" x="114.033917" y="22.525421" type="priority"/>
    <node id="220799852#2-AddedOffRampNode" x="114.036105" y="22.524213" type="priority"/>
    <node id="2268752726" x="114.058476" y="22.524638" type="priority"/>
    <node id="2268752856" x="114.057707" y="22.523673" type="traffic_light" tl="2268752856"/>
    <node id="2268771702" x="114.056399" y="22.524359" type="traffic_light" tl="2268771702"/>
    <node id="2268995250" x="114.048111" y="22.529957" type="traffic_light" tl="2268995250"/>
    <node id="2268995259" x="114.049541" y="22.529972" type="traffic_light" tl="2268995259"/>
    <node id="2268995266" x="114.050431" y="22.530083" type="priority"/>
    <node id="2268995301" x="114.044783" y="22.523861" type="traffic_light" tl="2268995301"/>
    <node id="2269583663" x="114.036160" y="22.522774" type="priority"/>
    <node id="2269583664" x="114.034636" y="22.525034" type="traffic_light" tl="2269583664"/>
    <node id="2269583670" x="114.031853" y="22.524965" type="priority"/>
    <node id="2269583672" x="114.033929" y="22.523918" type="traffic_light" tl="2269583672"/>
    <node id="2298877655" x="114.063588" y="22.539462" type="priority"/>
    <node id="2298895835" x="114.042496" y="22.520869" type="dead_end"/>
    <node id="2298895874" x="114.042440" y="22.520717" type="dead_end"/>
    <node id="2300238200" x="114.036403" y="22.599284" type="dead_end"/>
    <node id="2319202434" x="114.067813" y="22.547676" type="dead_end"/>
    <node id="2323667223" x="114.033492" y="22.551425" type="priority"/>
    <node id="2323667233" x="114.032872" y="22.553095" type="priority"/>
    <node id="2323667293" x="114.033322" y="22.552336" type="priority"/>
    <node id="2323667312" x="114.033735" y="22.550068" type="priority"/>
    <node id="2323667332" x="114.032942" y="22.551395" type="priority"/>
    <node id="2365005137" x="114.036749" y="22.548596" type="dead_end"/>
    <node id="2365005147" x="114.033525" y="22.552985" type="priority"/>
    <node id="2365005165" x="114.029293" y="22.556234" type="priority"/>
    <node id="2365005239" x="114.036655" y="22.548933" type="dead_end"/>
    <node id="2367560889" x="114.064366" y="22.548852" type="traffic_light" tl="2367560889"/>
    <node id="2367560893" x="114.065658" y="22.550378" type="priority"/>
    <node id="2367560900" x="114.064562" y="22.550623" type="priority"/>
    <node id="2367560904" x="114.065450" y="22.551027" type="dead_end"/>
    <node id="2367560905" x="114.066572" y="22.550725" type="priority"/>
    <node id="2367560906" x="114.065553" y="22.551369" type="dead_end"/>
    <node id="2367560907" x="114.063114" y="22.550096" type="traffic_light" tl="2367560907"/>
    <node id="2367560911" x="114.064575" y="22.549908" type="traffic_light" tl="2367560911"/>
    <node id="2367560914" x="114.066202" y="22.545984" type="priority"/>
    <node id="2367560917" x="114.067319" y="22.548052" type="priority"/>
    <node id="2367560918" x="114.065277" y="22.548882" type="priority"/>
    <node id="2367560920" x="114.064824" y="22.548966" type="priority"/>
    <node id="2367560923" x="114.065988" y="22.551334" type="dead_end"/>
    <node id="2367560928" x="114.067299" y="22.549496" type="traffic_light" tl="2367560928"/>
    <node id="2367560929" x="114.065811" y="22.551005" type="dead_end"/>
    <node id="2367560930" x="114.064928" y="22.550633" type="priority"/>
    <node id="2367560931" x="114.065628" y="22.549868" type="traffic_light" tl="2367560931"/>
    <node id="2367560934" x="114.053172" y="22.547457" type="traffic_light" tl="2367560934"/>
    <node id="2367560935" x="114.055768" y="22.547490" type="traffic_light" tl="2367560935"/>
    <node id="2367560940" x="114.063126" y="22.548743" type="traffic_light" tl="2367560940"/>
    <node id="2367560945" x="114.066841" y="22.548188" type="priority"/>
    <node id="2367560947" x="114.066032" y="22.548159" type="traffic_light" tl="2367560947"/>
    <node id="2367574747" x="114.063846" y="22.544532" type="priority"/>
    <node id="2367574751" x="114.063823" y="22.545403" type="priority"/>
    <node id="2367574752" x="114.062443" y="22.546771" type="dead_end"/>
    <node id="2367574755" x="114.064429" y="22.545407" type="traffic_light" tl="2367574755"/>
    <node id="2367574756" x="114.064955" y="22.545530" type="priority"/>
    <node id="2367574761" x="114.065506" y="22.545540" type="priority"/>
    <node id="2367574762" x="114.064970" y="22.544507" type="priority"/>
    <node id="2367574763" x="114.063083" y="22.546803" type="dead_end"/>
    <node id="2367574773" x="114.062309" y="22.547212" type="dead_end"/>
    <node id="2367574784" x="114.063343" y="22.547103" type="dead_end"/>
    <node id="2367574793" x="114.064613" y="22.547252" type="priority"/>
    <node id="2367574795" x="114.063072" y="22.547096" type="dead_end"/>
    <node id="2367574805" x="114.064621" y="22.545545" type="priority"/>
    <node id="2367574807" x="114.063151" y="22.547262" type="dead_end"/>
    <node id="2367574809" x="114.066201" y="22.546848" type="traffic_light" tl="2367574809"/>
    <node id="2367574810" x="114.064605" y="22.546846" type="priority"/>
    <node id="2367574813" x="114.064433" y="22.543992" type="priority"/>
    <node id="2367574818" x="114.064597" y="22.546628" type="traffic_light" tl="2367574818"/>
    <node id="2367574830" x="114.062431" y="22.547082" type="dead_end"/>
    <node id="2376737475" x="114.062722" y="22.527981" type="priority"/>
    <node id="2376737477" x="114.059522" y="22.531102" type="traffic_light" tl="2376737477"/>
    <node id="2376737479" x="114.062293" y="22.529320" type="priority"/>
    <node id="2376737480" x="114.061936" y="22.527601" type="priority"/>
    <node id="2376737482" x="114.059551" y="22.530618" type="priority"/>
    <node id="2376737484" x="114.059638" y="22.529271" type="priority"/>
    <node id="2376737485" x="114.060878" y="22.525967" type="priority"/>
    <node id="2376737486" x="114.061866" y="22.527977" type="priority"/>
    <node id="2376737489" x="114.058891" y="22.529258" type="priority"/>
    <node id="2376737490" x="114.061726" y="22.528857" type="traffic_light" tl="2376737490"/>
    <node id="2376737491" x="114.063006" y="22.529335" type="priority"/>
    <node id="2376737492" x="114.060658" y="22.526783" type="traffic_light" tl="2376737492"/>
    <node id="2376737493" x="114.059603" y="22.529750" type="traffic_light" tl="2376737493"/>
    <node id="2376737494" x="114.061524" y="22.527594" type="traffic_light" tl="2376737494"/>
    <node id="2376737495" x="114.063045" y="22.527982" type="priority"/>
    <node id="2376737497" x="114.061684" y="22.526805" type="priority"/>
    <node id="2376737499" x="114.061169" y="22.529297" type="traffic_light" tl="2376737499"/>
    <node id="2376737501" x="114.061719" y="22.529307" type="priority"/>
    <node id="2376737502" x="114.062288" y="22.525988" type="priority"/>
    <node id="2376737503" x="114.059299" y="22.528819" type="priority"/>
    <node id="2376737504" x="114.059526" y="22.526764" type="priority"/>
    <node id="2376737506" x="114.061253" y="22.528850" type="priority"/>
    <node id="2376737509" x="114.061841" y="22.525985" type="priority"/>
    <node id="2376737510" x="114.062034" y="22.527153" type="traffic_light" tl="2376737510"/>
    <node id="2376737512" x="114.060440" y="22.527593" type="traffic_light" tl="2376737512"/>
    <node id="2376737513" x="114.062698" y="22.529328" type="priority"/>
    <node id="2376751147" x="114.059525" y="22.527445" type="priority"/>
    <node id="2376751152" x="114.060429" y="22.530633" type="traffic_light" tl="2376751152"/>
    <node id="2376751154" x="114.062280" y="22.531141" type="priority"/>
    <node id="2376751155" x="114.062734" y="22.530162" type="priority"/>
    <node id="2376751160" x="114.062268" y="22.530564" type="priority"/>
    <node id="2376751170" x="114.061800" y="22.524977" type="priority"/>
    <node id="2376751174" x="114.062699" y="22.530574" type="priority"/>
    <node id="2376751177" x="114.059710" y="22.526761" type="priority"/>
    <node id="2376751179" x="114.060407" y="22.531108" type="priority"/>
    <node id="2376751180" x="114.062870" y="22.529332" type="priority"/>
    <node id="2376751183" x="114.061184" y="22.524826" type="traffic_light" tl="2376751183"/>
    <node id="2376751184" x="114.060854" y="22.526057" type="traffic_light" tl="2376751184"/>
    <node id="237810407#1-AddedOnRampNode" x="114.064660" y="22.537822" type="priority"/>
    <node id="2380017676" x="114.065337" y="22.529732" type="traffic_light" tl="2380017676"/>
    <node id="2380017688" x="114.063562" y="22.528473" type="priority"/>
    <node id="2380017690" x="114.066396" y="22.526058" type="priority"/>
    <node id="2380017692" x="114.065238" y="22.528747" type="priority"/>
    <node id="2380017693" x="114.065973" y="22.528754" type="priority"/>
    <node id="2380017696" x="114.067334" y="22.528769" type="traffic_light" tl="2380017696"/>
    <node id="2380017699" x="114.064460" y="22.529716" type="traffic_light" tl="2380017699"/>
    <node id="2380017701" x="114.063904" y="22.532096" type="dead_end"/>
    <node id="2380017716" x="114.063547" y="22.528804" type="priority"/>
    <node id="2380017718" x="114.063909" y="22.531210" type="dead_end"/>
    <node id="2380017720" x="114.063773" y="22.531209" type="dead_end"/>
    <node id="2380017726" x="114.063558" y="22.522631" type="priority"/>
    <node id="2380017730" x="114.065890" y="22.524785" type="priority"/>
    <node id="2380017732" x="114.063815" y="22.532056" type="dead_end"/>
    <node id="2380017734" x="114.064038" y="22.531211" type="dead_end"/>
    <node id="2380017739" x="114.062154" y="22.520203" type="priority"/>
    <node id="2380017743" x="114.064427" y="22.530636" type="priority"/>
    <node id="2380017751" x="114.067290" y="22.529759" type="priority"/>
    <node id="2380017753" x="114.064157" y="22.525977" type="traffic_light" tl="2380017753"/>
    <node id="2380017757" x="114.065985" y="22.527817" type="priority"/>
    <node id="2380017763" x="114.063532" y="22.529130" type="priority"/>
    <node id="2380017769" x="114.064479" y="22.525998" type="priority"/>
    <node id="2380017771" x="114.065313" y="22.530660" type="traffic_light" tl="2380017771"/>
    <node id="2380017781" x="114.066228" y="22.526118" type="traffic_light" tl="2380017781"/>
    <node id="2380017785" x="114.063198" y="22.528804" type="priority"/>