<?xml version="1.0" encoding="UTF-8"?>


<tlLogics version="1.1" xmlns:xsi="http://www.w3.org/2001/XMLSchema-instance" xsi:noNamespaceSchemaLocation="http://sumo.dlr.de/xsd/tllogic_file.xsd">
    <tlLogic id="1943410525" type="actuated" programID="0" offset="0">
        <phase duration="20" state="gGGGGrrgrr" minDur="10" maxDur="30"/>
        <phase duration="20" state="grrrrGGgrr" minDur="10" maxDur="30"/>
        <phase duration="20" state="grrrrrrgGG" minDur="10" maxDur="30"/>
    </tlLogic>
    <tlLogic id="1943410537" type="actuated" programID="0" offset="0">
        <phase duration="20" state="gGGGGrrgrr" minDur="10" maxDur="30"/>
        <phase duration="20" state="grrrrGGgrr" minDur="10" maxDur="30"/>
        <phase duration="20" state="grrrrrrgGG" minDur="10" maxDur="30"/>
    </tlLogic>
    <tlLogic id="2364917728" type="actuated" programID="0" offset="0">
        <phase duration="20" state="grrgGGGGrr" minDur="10" maxDur="30"/>
        <phase duration="20" state="grrgrrrrGG" minDur="10" maxDur="30"/>
        <phase duration="20" state="gGGgrrrrrr" minDur="10" maxDur="30"/>
    </tlLogic>
    <tlLogic id="2505522906" type="actuated" programID="0" offset="0">
        <phase duration="20" state="gGGGGrrgrr" minDur="10" maxDur="30"/>
        <phase duration="20" state="grrrrGGgrr" minDur="10" maxDur="30"/>
        <phase duration="20" state="grrrrrrgGG" minDur="10" maxDur="30"/>
    </tlLogic>
    <tlLogic id="2505523006" type="actuated" programID="0" offset="0">
        <phase duration="20" state="GGrrgrrgGG" minDur="10" maxDur="30"/>
        <phase duration="20" state="rrGGgrrgrr" minDur="10" maxDur="30"/>
        <phase duration="20" state="rrrrgGGgrr" minDur="10" maxDur="30"/>
    </tlLogic>
    <tlLogic id="2505523007" type="actuated" programID="0" offset="0">
        <phase duration="20" state="gGGGGrrgyrr" minDur="10" maxDur="30"/>
        <phase duration="20" state="grrrrGGgrrr" minDur="10" maxDur="30"/>
        <phase duration="20" state="grrrrrrgrGG" minDur="10" maxDur="30"/>
    </tlLogic>
    <tlLogic id="2505523011" type="actuated" programID="0" offset="0">
        <phase duration="20" state="grGGrGGrrrrgrr" minDur="10" maxDur="30"/>
        <phase duration="20" state="grrrrrrrGGrgrr" minDur="10" maxDur="30"/>
        <phase duration="20" state="grrrrrrrrrrgGG" minDur="10" maxDur="30"/>
    </tlLogic>
    <tlLogic id="2505523030" type="actuated" programID="0" offset="0">
        <phase duration="20" state="GGrrgrrgGG" minDur="10" maxDur="30"/>
        <phase duration="20" state="rrGGgrrgrr" minDur="10" maxDur="30"/>
        <phase duration="20" state="rrrrgGGgrr" minDur="10" maxDur="30"/>
    </tlLogic>
    <tlLogic id="2505523036" type="actuated" programID="0" offset="0">
        <phase duration="20" state="GGrrgrrgGG" minDur="10" maxDur="30"/>
        <phase duration="20" state="rrGGgrrgrr" minDur="10" maxDur="30"/>
        <phase duration="20" state="rrrrgGGgrr" minDur="10" maxDur="30"/>
    </tlLogic>
    <tlLogic id="2505523100" type="actuated" programID="0" offset="0">
        <phase duration="20" state="GGrrgrrgGG" minDur="10" maxDur="30"/>
        <phase duration="20" state="rrGGgrrgrr" minDur="10" maxDur="30"/>
        <phase duration="20" state="rrrrgGGgrr" minDur="10" maxDur="30"/>
    </tlLogic>
    <tlLogic id="2508061829" type="actuated" programID="0" offset="0">
        <phase duration="20" state="GGrrgrrgGG" minDur="10" maxDur="30"/>
        <phase duration="20" state="rrGGgrrgrr" minDur="10" maxDur="30"/>
        <phase duration="20" state="rrrrgGGgrr" minDur="10" maxDur="30"/>
    </tlLogic>
    <tlLogic id="2508061873" type="actuated" programID="0" offset="0">
        <phase duration="20" state="GGrrrgrrgrGG" minDur="10" maxDur="30"/>
        <phase duration="20" state="rrrGGgrrgrrr" minDur="10" maxDur="30"/>
        <phase duration="20" state="rrrrrgGGgrrr" minDur="10" maxDur="30"/>
    </tlLogic>
    <tlLogic id="2508068024" type="actuated" programID="0" offset="0">
        <phase duration="20" state="grrrrgGGyrgrrrrgGGyr" minDur="10" maxDur="30"/>
        <phase duration="20" state="grrrrgrrrGgrrrrgrrrG" minDur="10" maxDur="30"/>
        <phase duration="20" state="gGGrrgrrrrgGGrrgrrrr" minDur="10" maxDur="30"/>
        <phase duration="20" state="grrrGgrrrrgrrrGgrrrr" minDur="10" maxDur="30"/>
    </tlLogic>
    <tlLogic id="2508068037" type="actuated" programID="0" offset="0">
        <phase duration="20" state="grGGGGrrrgrr" minDur="10" maxDur="30"/>
        <phase duration="20" state="grrrrrrGGgrr" minDur="10" maxDur="30"/>
        <phase duration="20" state="grrrrrrrrgGG" minDur="10" maxDur="30"/>
    </tlLogic>
    <tlLogic id="2508068047" type="actuated" programID="0" offset="0">
        <phase duration="20" state="grrgGGGGrrr" minDur="10" maxDur="30"/>
        <phase duration="20" state="grrgrrrrrGG" minDur="10" maxDur="30"/>
        <phase duration="20" state="gGGgrrrrrrr" minDur="10" maxDur="30"/>
    </tlLogic>
    <tlLogic id="2508068049" type="actuated" programID="0" offset="0">
        <phase duration="20" state="GGrrgrrgGG" minDur="10" maxDur="30"/>
        <phase duration="20" state="rrGGgrrgrr" minDur="10" maxDur="30"/>
        <phase duration="20" state="rrrrgGGgrr" minDur="10" maxDur="30"/>
    </tlLogic>
    <tlLogic id="2508068050" type="actuated" programID="0" offset="0">
        <phase duration="20" state="gGGGGrrgrr" minDur="10" maxDur="30"/>
        <phase duration="20" state="grrrrGGgrr" minDur="10" maxDur="30"/>
        <phase duration="20" state="grrrrrrgGG" minDur="10" maxDur="30"/>
    </tlLogic>
    <tlLogic id="2508068057" type="actuated" programID="0" offset="0">
        <phase duration="20" state="grrygrGGrGGrrr" minDur="10" maxDur="30"/>
        <phase duration="20" state="grrrgrrrrrrrGG" minDur="10" maxDur="30"/>
        <phase duration="20" state="gGGrgrrrrrrrrr" minDur="10" maxDur="30"/>
    </tlLogic>
    <tlLogic id="2508068061" type="actuated" programID="0" offset="0">
        <phase duration="20" state="GGrrrrgrrygrGG" minDur="10" maxDur="30"/>
        <phase duration="20" state="rrrGGrgrrrgrrr" minDur="10" maxDur="30"/>
        <phase duration="20" state="rrrrrrgGGrgrrr" minDur="10" maxDur="30"/>
    </tlLogic>
    <tlLogic id="2508068065" type="actuated" programID="0" offset="0">
        <phase duration="20" state="grGGGGrrrgrr" minDur="10" maxDur="30"/>
        <phase duration="20" state="grrrrrrGGgrr" minDur="10" maxDur="30"/>
        <phase duration="20" state="grrrrrrrrgGG" minDur="10" maxDur="30"/>
    </tlLogic>
    <tlLogic id="2508068073" type="actuated" programID="0" offset="0">
        <phase duration="20" state="GGrrrrgrrygrGG" minDur="10" maxDur="30"/>
        <phase duration="20" state="rrrGGrgrrrgrrr" minDur="10" maxDur="30"/>
        <phase duration="20" state="rrrrrrgGGrgrrr" minDur="10" maxDur="30"/>
    </tlLogic>
    <tlLogic id="2508068091" type="actuated" programID="0" offset="0">
        <phase duration="20" state="GGrrrrgrrygrGG" minDur="10" maxDur="30"/>
        <phase duration="20" state="rrrGGrgrrrgrrr" minDur="10" maxDur="30"/>
        <phase duration="20" state="rrrrrrgGGrgrrr" minDur="10" maxDur="30"/>
    </tlLogic>
    <tlLogic id="2508068095" type="actuated" programID="0" offset="0">
        <phase duration="20" state="gGGrgrrrgGGrgrrr" minDur="10" maxDur="30"/>
        <phase duration="20" state="grrGgrrrgrrGgrrr" minDur="10" maxDur="30"/>
        <phase duration="20" state="grrrgGGrgrrrgGGr" minDur="10" maxDur="30"/>
        <phase duration="20" state="grrrgrrGgrrrgrrG" minDur="10" maxDur="30"/>
    </tlLogic>
    <tlLogic id="2508068100" type="actuated" programID="0" offset="0">
        <phase duration="20" state="gGGGGrrgrr" minDur="10" maxDur="30"/>
        <phase duration="20" state="grrrrGGgrr" minDur="10" maxDur="30"/>
        <phase duration="20" state="grrrrrrgGG" minDur="10" maxDur="30"/>
    </tlLogic>
    <tlLogic id="2508068103" type="actuated" programID="0" offset="0">
        <phase duration="20" state="grrgGGGGrr" minDur="10" maxDur="30"/>
        <phase duration="20" state="grrgrrrrGG" minDur="10" maxDur="30"/>
        <phase duration="20" state="gGGgrrrrrr" minDur="10" maxDur="30"/>
    </tlLogic>
    <tlLogic id="5179129483" type="actuated" programID="0" offset="0">
        <phase duration="20" state="gGGGGrrgrr" minDur="10" maxDur="30"/>
        <phase duration="20" state="grrrrGGgrr" minDur="10" maxDur="30"/>
        <phase duration="20" state="grrrrrrgGG" minDur="10" maxDur="30"/>
    </tlLogic>
    <tlLogic id="5345110852" type="actuated" programID="0" offset="0">
        <phase duration="20" state="grrrgGGrgrrrgGGrr" minDur="10" maxDur="30"/>
        <phase duration="20" state="grrrgrrGgrrrgrrrG" minDur="10" maxDur="30"/>
        <phase duration="20" state="gGGrgrrrgGGrgrrrr" minDur="10" maxDur="30"/>
        <phase duration="20" state="grrGgrrrgrrGgrrrr" minDur="10" maxDur="30"/>
    </tlLogic>
    <tlLogic id="6240866858" type="actuated" programID="0" offset="0">
        <phase duration="20" state="GGrrrgrrgrGG" minDur="10" maxDur="30"/>
        <phase duration="20" state="rrrGGgrrgrrr" minDur="10" maxDur="30"/>
        <phase duration="20" state="rrrrrgGGgrrr" minDur="10" maxDur="30"/>
    </tlLogic>
    <tlLogic id="cluster_1943410584_2317023679_2505522947_5140241324" type="actuated" programID="0" offset="0">
        <phase duration="20" state="grrrgGGrgrrrgGGr" minDur="10" maxDur="30"/>
        <phase duration="20" state="grrrgrrGgrrrgrrG" minDur="10" maxDur="30"/>
        <phase duration="20" state="gGGrgrrrgGGrgrrr" minDur="10" maxDur="30"/>
        <phase duration="20" state="grrGgrrrgrrGgrrr" minDur="10" maxDur="30"/>
    </tlLogic>
    <tlLogic id="cluster_1943410595_1943410613_2364917727" type="actuated" programID="0" offset="0">
        <phase duration="20" state="grrrgGGrgrrrgGGr" minDur="10" maxDur="30"/>
        <phase duration="20" state="grrrgrrGgrrrgrrG" minDur="10" maxDur="30"/>
        <phase duration="20" state="gGGrgrrrgGGrgrrr" minDur="10" maxDur="30"/>
        <phase duration="20" state="grrGgrrrgrrGgrrr" minDur="10" maxDur="30"/>
    </tlLogic>
    <tlLogic id="cluster_2317023651_2317023675_2317023678_2508090940" type="actuated" programID="0" offset="0">
        <phase duration="20" state="gGGGGrrgrr" minDur="10" maxDur="30"/>
        <phase duration="20" state="grrrrGGgrr" minDur="10" maxDur="30"/>
        <phase duration="20" state="grrrrrrgGG" minDur="10" maxDur="30"/>
    </tlLogic>
    <tlLogic id="cluster_2366083155_2366083174_5140241017_5140241018" type="actuated" programID="0" offset="0">
        <phase duration="20" state="grrrgGGrgrrrrgGGr" minDur="10" maxDur="30"/>
        <phase duration="20" state="grrrgrrGgrrrrgrrG" minDur="10" maxDur="30"/>
        <phase duration="20" state="gGGrgrrrgGGrrgrrr" minDur="10" maxDur="30"/>
        <phase duration="20" state="grrGgrrGgrrrrgrrr" minDur="10" maxDur="30"/>
    </tlLogic>
    <tlLogic id="cluster_2508090910_5140241014_5179129422_5345110196" type="actuated" programID="0" offset="0">
        <phase duration="20" state="grrrgGGrgrrrgGGr" minDur="10" maxDur="30"/>
        <phase duration="20" state="grrrgrrGgrrrgrrG" minDur="10" maxDur="30"/>
        <phase duration="20" state="gGGrgrrrgGGrgrrr" minDur="10" maxDur="30"/>
        <phase duration="20" state="grrGgrrrgrrGgrrr" minDur="10" maxDur="30"/>
    </tlLogic>
    <tlLogic id="cluster_2508090929_5179129473" type="actuated" programID="0" offset="0">
        <phase duration="20" state="grrgGGGGrr" minDur="10" maxDur="30"/>
        <phase duration="20" state="grrgrrrrGG" minDur="10" maxDur="30"/>
        <phase duration="20" state="gGGgrrrrrr" minDur="10" maxDur="30"/>
    </tlLogic>
    <tlLogic id="cluster_5140241006_5140241020" type="actuated" programID="0" offset="0">
        <phase duration="20" state="grrgGGGGrr" minDur="10" maxDur="30"/>
        <phase duration="20" state="grrgrrrrGG" minDur="10" maxDur="30"/>
        <phase duration="20" state="gGGgrrrrrr" minDur="10" maxDur="30"/>
    </tlLogic>
    <tlLogic id="cluster_5140241325_5140241331" type="actuated" programID="0" offset="0">
        <phase duration="20" state="GGrrgrrgGG" minDur="10" maxDur="30"/>
        <phase duration="20" state="rrGGgrrgrr" minDur="10" maxDur="30"/>
        <phase duration="20" state="rrrrgGGgrr" minDur="10" maxDur="30"/>
    </tlLogic>

    <connection from="-183920399#0" to="183920406#4" fromLane="0" toLane="0" tl="cluster_1943410595_1943410613_2364917727" linkIndex="12"/>
    <connection from="-183920399#0" to="360123643#1" fromLane="0" toLane="0" tl="cluster_1943410595_1943410613_2364917727" linkIndex="13"/>
    <connection from="-183920399#0" to="360123643#1" fromLane="1" toLane="1" tl="cluster_1943410595_1943410613_2364917727" linkIndex="14"/>
    <connection from="-183920399#0" to="293326333#17" fromLane="2" toLane="2" tl="cluster_1943410595_1943410613_2364917727" linkIndex="15"/>
    <connection from="-227855146#1" to="-227855146#0" fromLane="0" toLane="0" tl="2364917728" linkIndex="6"/>
    <connection from="-227855146#1" to="-227855146#0" fromLane="1" toLane="1" tl="2364917728" linkIndex="7"/>
    <connection from="-227855146#1" to="243387667" fromLane="2" toLane="1" tl="2364917728" linkIndex="9"/>
    <connection from="-227855146#1" to="243387667" fromLane="2" toLane="2" tl="2364917728" linkIndex="8"/>
    <connection from="-243119791#2" to="243119817#2" fromLane="0" toLane="0" tl="2505523011" linkIndex="11"/>
    <connection from="-243119791#2" to="-243119817#1" fromLane="1" toLane="1" tl="2505523011" linkIndex="12"/>
    <connection from="-243119791#2" to="-243119817#1" fromLane="2" toLane="2" tl="2505523011" linkIndex="13"/>
    <connection from="-243119791#3" to="243119807" fromLane="0" toLane="0" tl="2505523030" linkIndex="7"/>
    <connection from="-243119791#3" to="-243119791#2" fromLane="1" toLane="1" tl="2505523030" linkIndex="8"/>
    <connection from="-243119791#3" to="-243119791#2" fromLane="2" toLane="2" tl="2505523030" linkIndex="9"/>
    <connection from="-243119791#4" to="-243119817#7" fromLane="0" toLane="0" tl="2505523036" linkIndex="7"/>
    <connection from="-243119791#4" to="-243119791#3" fromLane="1" toLane="1" tl="2505523036" linkIndex="8"/>
    <connection from="-243119791#4" to="-243119791#3" fromLane="2" toLane="2" tl="2505523036" linkIndex="9"/>
    <connection from="-243119805" to="243119817#1" fromLane="0" toLane="0" tl="2505522906" linkIndex="7"/>
    <connection from="-243119805" to="-243119817#0" fromLane="1" toLane="1" tl="2505522906" linkIndex="8"/>
    <connection from="-243119805" to="-243119817#0" fromLane="2" toLane="2" tl="2505522906" linkIndex="9"/>
    <connection from="-243119807" to="-243119791#2" fromLane="0" toLane="0" tl="2505523030" linkIndex="4"/>
    <connection from="-243119807" to="243119791#3" fromLane="1" toLane="1" tl="2505523030" linkIndex="5"/>
    <connection from="-243119807" to="243119791#3" fromLane="2" toLane="2" tl="2505523030" linkIndex="6"/>
    <connection from="-243119817#1" to="-243119817#0" fromLane="0" toLane="0" tl="2505522906" linkIndex="3"/>
    <connection from="-243119817#1" to="-243119817#0" fromLane="1" toLane="1" tl="2505522906" linkIndex="4"/>
    <connection from="-243119817#1" to="243119805" fromLane="2" toLane="1" tl="2505522906" linkIndex="5"/>
    <connection from="-243119817#1" to="243119805" fromLane="2" toLane="2" tl="2505522906" linkIndex="6"/>
    <connection from="-243119817#2" to="-243119817#1" fromLane="0" toLane="0" tl="2505523011" linkIndex="5"/>
    <connection from="-243119817#2" to="-243119817#1" fromLane="1" toLane="1" tl="2505523011" linkIndex="6"/>
    <connection from="-243119817#2" to="243119791#2" fromLane="2" toLane="1" tl="2505523011" linkIndex="8"/>
    <connection from="-243119817#2" to="243119791#2" fromLane="2" toLane="2" tl="2505523011" linkIndex="9"/>
    <connection from="-243119817#5" to="-243119817#4" fromLane="0" toLane="0" tl="2505523007" linkIndex="3"/>
    <connection from="-243119817#5" to="-243119817#4" fromLane="1" toLane="1" tl="2505523007" linkIndex="4"/>
    <connection from="-243119817#5" to="-243119819" fromLane="2" toLane="1" tl="2505523007" linkIndex="5"/>
    <connection from="-243119817#5" to="-243119819" fromLane="2" toLane="2" tl="2505523007" linkIndex="6"/>
    <connection from="-243119817#6" to="-243119817#5" fromLane="0" toLane="0" tl="2505523006" linkIndex="0"/>
    <connection from="-243119817#6" to="-243119817#5" fromLane="1" toLane="1" tl="2505523006" linkIndex="1"/>
    <connection from="-243119817#6" to="243119819" fromLane="2" toLane="1" tl="2505523006" linkIndex="2"/>
    <connection from="-243119817#6" to="243119819" fromLane="2" toLane="2" tl="2505523006" linkIndex="3"/>
    <connection from="-243119817#7" to="-243119817#6" fromLane="0" toLane="0" tl="2505523100" linkIndex="0"/>
    <connection from="-243119817#7" to="-243119817#6" fromLane="1" toLane="1" tl="2505523100" linkIndex="1"/>
    <connection from="-243119817#7" to="-243119807" fromLane="2" toLane="1" tl="2505523100" linkIndex="2"/>
    <connection from="-243119817#7" to="-243119807" fromLane="2" toLane="2" tl="2505523100" linkIndex="3"/>
    <connection from="-243119819" to="243119817#6" fromLane="0" toLane="0" tl="2505523006" linkIndex="4"/>
    <connection from="-243119819" to="-243119817#5" fromLane="1" toLane="1" tl="2505523006" linkIndex="5"/>
    <connection from="-243119819" to="-243119817#5" fromLane="2" toLane="2" tl="2505523006" linkIndex="6"/>
    <connection from="-243384968#1" to="-243384968#0" fromLane="0" toLane="0" tl="2508061873" linkIndex="8"/>
    <connection from="-243384968#1" to="-402047416" fromLane="1" toLane="1" tl="2508061873" linkIndex="10"/>
    <connection from="-243384968#1" to="-402047416" fromLane="2" toLane="2" tl="2508061873" linkIndex="11"/>
    <connection from="-243384968#2" to="-243384977#2" fromLane="0" toLane="0" tl="2508061829" linkIndex="7"/>
    <connection from="-243384968#2" to="-243384968#1" fromLane="1" toLane="1" tl="2508061829" linkIndex="8"/>
    <connection from="-243384968#2" to="-243384968#1" fromLane="2" toLane="2" tl="2508061829" linkIndex="9"/>
    <connection from="-243385768#1" to="243385773#1" fromLane="0" toLane="0" tl="2508068095" linkIndex="4"/>
    <connection from="-243385768#1" to="-243385768#0" fromLane="0" toLane="0" tl="2508068095" linkIndex="5"/>
    <connection from="-243385768#1" to="-243385768#0" fromLane="1" toLane="1" tl="2508068095" linkIndex="6"/>
    <connection from="-243385768#1" to="-243385773#0" fromLane="2" toLane="2" tl="2508068095" linkIndex="7"/>
    <connection from="-243385768#2" to="243385780" fromLane="0" toLane="0" tl="2508068037" linkIndex="0"/>
    <connection from="-243385768#2" to="-243385768#1" fromLane="1" toLane="1" tl="2508068037" linkIndex="2"/>
    <connection from="-243385768#2" to="-243385768#1" fromLane="2" toLane="2" tl="2508068037" linkIndex="3"/>
    <connection from="-243385768#3" to="-243385771#0" fromLane="0" toLane="0" tl="2508068024" linkIndex="0"/>
    <connection from="-243385768#3" to="-243385768#2" fromLane="0" toLane="0" tl="2508068024" linkIndex="1"/>
    <connection from="-243385768#3" to="-243385768#2" fromLane="1" toLane="1" tl="2508068024" linkIndex="2"/>
    <connection from="-243385768#3" to="243385771#1" fromLane="2" toLane="2" tl="2508068024" linkIndex="4"/>
    <connection from="-243385768#4" to="-243385778#1" fromLane="0" toLane="0" tl="2508068100" linkIndex="0"/>
    <connection from="-243385768#4" to="-243385768#3" fromLane="1" toLane="1" tl="2508068100" linkIndex="1"/>
    <connection from="-243385768#4" to="-243385768#3" fromLane="2" toLane="2" tl="2508068100" linkIndex="2"/>
    <connection from="-243385768#5" to="-243385768#4" fromLane="0" toLane="0" tl="2508068049" linkIndex="0"/>
    <connection from="-243385768#5" to="-243385768#4" fromLane="1" toLane="1" tl="2508068049" linkIndex="1"/>
    <connection from="-243385768#5" to="243385770" fromLane="2" toLane="1" tl="2508068049" linkIndex="2"/>
    <connection from="-243385768#5" to="243385770" fromLane="2" toLane="2" tl="2508068049" linkIndex="3"/>
    <connection from="-243385768#6" to="243385777#0" fromLane="0" toLane="0" tl="2508068061" linkIndex="10"/>
    <connection from="-243385768#6" to="-243385768#5" fromLane="1" toLane="1" tl="2508068061" linkIndex="12"/>
    <connection from="-243385768#6" to="-243385768#5" fromLane="2" toLane="2" tl="2508068061" linkIndex="13"/>
    <connection from="-243385770" to="243385768#5" fromLane="0" toLane="0" tl="2508068049" linkIndex="4"/>
    <connection from="-243385770" to="-243385768#4" fromLane="1" toLane="1" tl="2508068049" linkIndex="5"/>
    <connection from="-243385770" to="-243385768#4" fromLane="2" toLane="2" tl="2508068049" linkIndex="6"/>
    <connection from="-243385771#0" to="243385774#1" fromLane="0" toLane="0" tl="2508068073" linkIndex="6"/>
    <connection from="-243385771#0" to="-243385774#0" fromLane="1" toLane="1" tl="2508068073" linkIndex="7"/>
    <connection from="-243385771#0" to="-243385774#0" fromLane="2" toLane="2" tl="2508068073" linkIndex="8"/>
    <connection from="-243385771#1" to="243385768#3" fromLane="0" toLane="0" tl="2508068024" linkIndex="5"/>
    <connection from="-243385771#1" to="-243385771#0" fromLane="0" toLane="0" tl="2508068024" linkIndex="6"/>
    <connection from="-243385771#1" to="-243385771#0" fromLane="1" toLane="1" tl="2508068024" linkIndex="7"/>
    <connection from="-243385771#1" to="-243385768#2" fromLane="2" toLane="2" tl="2508068024" linkIndex="9"/>
    <connection from="-243385773#0" to="529070163#5" fromLane="0" toLane="0" tl="2508068065" linkIndex="9"/>
    <connection from="-243385773#0" to="-529070163#4" fromLane="1" toLane="1" tl="2508068065" linkIndex="10"/>
    <connection from="-243385773#0" to="-529070163#4" fromLane="2" toLane="2" tl="2508068065" linkIndex="11"/>
    <connection from="-243385773#1" to="-243385768#0" fromLane="0" toLane="0" tl="2508068095" linkIndex="0"/>
    <connection from="-243385773#1" to="-243385773#0" fromLane="0" toLane="0" tl="2508068095" linkIndex="1"/>
    <connection from="-243385773#1" to="-243385773#0" fromLane="1" toLane="1" tl="2508068095" linkIndex="2"/>
    <connection from="-243385773#1" to="243385768#1" fromLane="2" toLane="2" tl="2508068095" linkIndex="3"/>
    <connection from="-243385774#0" to="-243385776#2" fromLane="0" toLane="0" tl="2508068057" linkIndex="4"/>
    <connection from="-243385774#0" to="-608477070#1" fromLane="1" toLane="1" tl="2508068057" linkIndex="6"/>
    <connection from="-243385774#0" to="-608477070#1" fromLane="2" toLane="2" tl="2508068057" linkIndex="7"/>
    <connection from="-243385774#1" to="-243385774#0" fromLane="0" toLane="0" tl="2508068073" linkIndex="0"/>
    <connection from="-243385774#1" to="-243385774#0" fromLane="1" toLane="1" tl="2508068073" linkIndex="1"/>
    <connection from="-243385774#1" to="243385771#0" fromLane="2" toLane="1" tl="2508068073" linkIndex="3"/>
    <connection from="-243385774#1" to="243385771#0" fromLane="2" toLane="2" tl="2508068073" linkIndex="4"/>
    <connection from="-243385774#2" to="243385776#0" fromLane="0" toLane="0" tl="2508068050" linkIndex="0"/>
    <connection from="-243385774#2" to="-243385774#1" fromLane="1" toLane="1" tl="2508068050" linkIndex="1"/>
    <connection from="-243385774#2" to="-243385774#1" fromLane="2" toLane="2" tl="2508068050" linkIndex="2"/>
    <connection from="-243385776#0" to="-243385774#1" fromLane="0" toLane="0" tl="2508068050" linkIndex="7"/>
    <connection from="-243385776#0" to="243385774#2" fromLane="1" toLane="1" tl="2508068050" linkIndex="8"/>
    <connection from="-243385776#0" to="243385774#2" fromLane="2" toLane="2" tl="2508068050" linkIndex="9"/>
    <connection from="-243385776#1" to="-243385776#0" fromLane="0" toLane="0" tl="2508068047" linkIndex="6"/>
    <connection from="-243385776#1" to="-243385776#0" fromLane="1" toLane="1" tl="2508068047" linkIndex="7"/>
    <connection from="-243385776#1" to="-243385768#6" fromLane="2" toLane="1" tl="2508068047" linkIndex="9"/>
    <connection from="-243385776#1" to="-243385768#6" fromLane="2" toLane="2" tl="2508068047" linkIndex="10"/>
    <connection from="-243385777#0" to="-243385768#5" fromLane="0" toLane="0" tl="2508068061" linkIndex="6"/>
    <connection from="-243385777#0" to="243385768#6" fromLane="1" toLane="1" tl="2508068061" linkIndex="7"/>
    <connection from="-243385777#0" to="243385768#6" fromLane="2" toLane="2" tl="2508068061" linkIndex="8"/>
    <connection from="-243385780" to="-243385768#1" fromLane="0" toLane="0" tl="2508068037" linkIndex="9"/>
    <connection from="-243385780" to="243385768#2" fromLane="1" toLane="1" tl="2508068037" linkIndex="10"/>
    <connection from="-243385780" to="243385768#2" fromLane="2" toLane="2" tl="2508068037" linkIndex="11"/>
    <connection from="-243387667" to="227855146#1" fromLane="0" toLane="0" tl="2364917728" linkIndex="0"/>
    <connection from="-243387667" to="-227855146#0" fromLane="1" toLane="1" tl="2364917728" linkIndex="1"/>
    <connection from="-243387667" to="-227855146#0" fromLane="2" toLane="2" tl="2364917728" linkIndex="2"/>
    <connection from="-402048867#1" to="243387686#7" fromLane="0" toLane="0" tl="cluster_2508090929_5179129473" linkIndex="0"/>
    <connection from="-402048867#1" to="183920405#5" fromLane="1" toLane="1" tl="cluster_2508090929_5179129473" linkIndex="1"/>
    <connection from="-402048867#1" to="183920405#5" fromLane="2" toLane="2" tl="cluster_2508090929_5179129473" linkIndex="2"/>
    <connection from="-402048867#3" to="-553781209#0" fromLane="0" toLane="0" tl="5345110852" linkIndex="0"/>
    <connection from="-402048867#3" to="-402048867#2" fromLane="0" toLane="0" tl="5345110852" linkIndex="1"/>
    <connection from="-402048867#3" to="-402048867#2" fromLane="1" toLane="1" tl="5345110852" linkIndex="2"/>
    <connection from="-402048867#3" to="553781209#1" fromLane="2" toLane="2" tl="5345110852" linkIndex="3"/>
    <connection from="-402048867#6" to="-666569435" fromLane="0" toLane="0" tl="5179129483" linkIndex="0"/>
    <connection from="-402048867#6" to="-402048867#3" fromLane="1" toLane="1" tl="5179129483" linkIndex="1"/>
    <connection from="-402048867#6" to="-402048867#3" fromLane="2" toLane="2" tl="5179129483" linkIndex="2"/>
    <connection from="-402048867#7" to="-402048867#6" fromLane="0" toLane="0" tl="6240866858" linkIndex="0"/>
    <connection from="-402048867#7" to="-402048867#6" fromLane="1" toLane="1" tl="6240866858" linkIndex="1"/>
    <connection from="-402048867#7" to="666569439" fromLane="2" toLane="1" tl="6240866858" linkIndex="3"/>
    <connection from="-402048867#7" to="666569439" fromLane="2" toLane="2" tl="6240866858" linkIndex="4"/>
    <connection from="-477814981" to="-243385773#1" fromLane="0" toLane="0" tl="2508068103" linkIndex="6"/>
    <connection from="-477814981" to="-243385773#1" fromLane="1" toLane="1" tl="2508068103" linkIndex="7"/>
    <connection from="-477814981" to="-243385780" fromLane="2" toLane="1" tl="2508068103" linkIndex="8"/>
    <connection from="-477814981" to="-243385780" fromLane="2" toLane="2" tl="2508068103" linkIndex="9"/>
    <connection from="-529070163#1" to="183920405#4" fromLane="0" toLane="0" tl="cluster_5140241325_5140241331" linkIndex="4"/>
    <connection from="-529070163#1" to="243387686#10" fromLane="1" toLane="1" tl="cluster_5140241325_5140241331" linkIndex="5"/>
    <connection from="-529070163#1" to="243387686#10" fromLane="2" toLane="2" tl="cluster_5140241325_5140241331" linkIndex="6"/>
    <connection from="-529070163#3" to="-529070163#2" fromLane="0" toLane="0" tl="1943410537" linkIndex="3"/>
    <connection from="-529070163#3" to="-529070163#2" fromLane="1" toLane="1" tl="1943410537" linkIndex="4"/>
    <connection from="-529070163#3" to="-243385770" fromLane="2" toLane="1" tl="1943410537" linkIndex="5"/>
    <connection from="-529070163#3" to="-243385770" fromLane="2" toLane="2" tl="1943410537" linkIndex="6"/>
    <connection from="-529070163#4" to="-529070163#3" fromLane="0" toLane="0" tl="1943410525" linkIndex="3"/>
    <connection from="-529070163#4" to="-529070163#3" fromLane="1" toLane="1" tl="1943410525" linkIndex="4"/>
    <connection from="-529070163#4" to="-243385771#1" fromLane="2" toLane="1" tl="1943410525" linkIndex="5"/>
    <connection from="-529070163#4" to="-243385771#1" fromLane="2" toLane="2" tl="1943410525" linkIndex="6"/>
    <connection from="-529070163#5" to="-529070163#4" fromLane="0" toLane="0" tl="2508068065" linkIndex="4"/>
    <connection from="-529070163#5" to="-529070163#4" fromLane="1" toLane="1" tl="2508068065" linkIndex="5"/>
    <connection from="-529070163#5" to="243385773#0" fromLane="2" toLane="1" tl="2508068065" linkIndex="7"/>
    <connection from="-529070163#5" to="243385773#0" fromLane="2" toLane="2" tl="2508068065" linkIndex="8"/>
    <connection from="-553781209#0" to="-402048867#3" fromLane="0" toLane="0" tl="5179129483" linkIndex="7"/>
    <connection from="-553781209#0" to="402048867#4" fromLane="1" toLane="1" tl="5179129483" linkIndex="8"/>
    <connection from="-553781209#0" to="402048867#4" fromLane="2" toLane="2" tl="5179129483" linkIndex="9"/>
    <connection from="-553781209#1" to="402048867#3" fromLane="0" toLane="0" tl="5345110852" linkIndex="4"/>
    <connection from="-553781209#1" to="-553781209#0" fromLane="0" toLane="0" tl="5345110852" linkIndex="5"/>
    <connection from="-553781209#1" to="-553781209#0" fromLane="1" toLane="1" tl="5345110852" linkIndex="6"/>
    <connection from="-553781209#1" to="-402048867#2" fromLane="2" toLane="2" tl="5345110852" linkIndex="7"/>
    <connection from="-608477070#1" to="-608477070#0" fromLane="0" toLane="0" tl="2508068091" linkIndex="0"/>
    <connection from="-608477070#1" to="-608477070#0" fromLane="1" toLane="1" tl="2508068091" linkIndex="1"/>
    <connection from="-608477070#1" to="-477814981" fromLane="2" toLane="1" tl="2508068091" linkIndex="3"/>