<?xml version="1.0" encoding="UTF-8"?>

<edges version="1.1" xmlns:xsi="http://www.w3.org/2001/XMLSchema-instance" xsi:noNamespaceSchemaLocation="http://sumo.dlr.de/xsd/edges_file.xsd">
    <edge id="-183920399#0" from="3647240056" to="cluster_1943410595_1943410613_2364917727" name="石鼓路" priority="6" type="highway.tertiary" numLanes="3" speed="22.22" shape="6411.55,5145.34 6412.51,5113.62" disallow="tram rail_urban rail rail_electric ship">
        <lane index="0">
            <param key="origId" value="183920399"/>
        </lane>
        <lane index="1">
            <param key="origId" value="183920399"/>
        </lane>
        <lane index="2">
            <param key="origId" value="183920399"/>
        </lane>
    </edge>
    <edge id="-183920399#1" from="1943410926" to="3647240056" name="石鼓路" priority="6" type="highway.tertiary" numLanes="3" speed="22.22" shape="6393.78,5665.97 6401.09,5488.71,10.72 6404.01,5392.81,10.72 6407.89,5265.50,10.72 6411.55,5145.34" disallow="tram rail_urban rail rail_electric ship">
        <lane index="0">
            <param key="origId" value="183920399"/>
        </lane>
        <lane index="1">
            <param key="origId" value="183920399"/>
        </lane>
        <lane index="2">
            <param key="origId" value="183920399"/>
        </lane>
    </edge>
    <edge id="-227855146#0" from="2364917728" to="2364917723" priority="4" type="highway.residential" numLanes="3" speed="13.89" shape="6529.29,4502.40 6595.06,4488.76,10.72 6657.90,4477.48,10.72 6722.15,4463.69,10.72 6776.58,4440.19,10.72 6844.48,4387.53" disallow="tram rail_urban rail rail_electric ship">
        <lane index="0">
            <param key="origId" value="227855146"/>
        </lane>
        <lane index="1">
            <param key="origId" value="227855146"/>
        </lane>
        <lane index="2">
            <param key="origId" value="227855146"/>
        </lane>
    </edge>
    <edge id="-227855146#1" from="2364917717" to="2364917728" priority="4" type="highway.residential" numLanes="3" speed="13.89" shape="6442.78,4536.88 6476.21,4523.19,10.72 6529.29,4502.40" disallow="tram rail_urban rail rail_electric ship">
        <lane index="0">
            <param key="origId" value="227855146"/>
        </lane>
        <lane index="1">
            <param key="origId" value="227855146"/>
        </lane>
        <lane index="2">
            <param key="origId" value="227855146"/>
        </lane>
    </edge>
    <edge id="-243119791#2" from="2505523030" to="2505523011" priority="2" type="highway.service" numLanes="3" speed="5.56" allow="delivery bicycle pedestrian">
        <lane index="0">
            <param key="origId" value="243119791"/>
        </lane>
        <lane index="1">
            <param key="origId" value="243119791"/>
        </lane>
        <lane index="2">
            <param key="origId" value="243119791"/>
        </lane>
    </edge>
    <edge id="-243119791#3" from="2505523036" to="2505523030" priority="2" type="highway.service" numLanes="3" speed="5.56" allow="delivery bicycle pedestrian">
        <lane index="0">
            <param key="origId" value="243119791"/>
        </lane>
        <lane index="1">
            <param key="origId" value="243119791"/>
        </lane>
        <lane index="2">
            <param key="origId" value="243119791"/>
        </lane>
    </edge>
    <edge id="-243119791#4" from="6222141315" to="2505523036" priority="2" type="highway.service" numLanes="3" speed="5.56" allow="delivery bicycle pedestrian">
        <lane index="0">
            <param key="origId" value="243119791"/>
        </lane>
        <lane index="1">
            <param key="origId" value="243119791"/>
        </lane>
        <lane index="2">
            <param key="origId" value="243119791"/>
        </lane>
    </edge>
    <edge id="-243119805" from="2505523081" to="2505522906" priority="2" type="highway.service" numLanes="3" speed="5.56" allow="delivery bicycle pedestrian">
        <lane index="0">
            <param key="origId" value="243119805"/>
        </lane>
        <lane index="1">
            <param key="origId" value="243119805"/>
        </lane>
        <lane index="2">
            <param key="origId" value="243119805"/>
        </lane>
    </edge>
    <edge id="-243119807" from="2505523100" to="2505523030" priority="2" type="highway.service" numLanes="3" speed="5.56" shape="5518.65,5294.25 5522.32,5211.28,10.72 5523.01,5203.88,10.72 5524.78,5198.43,10.72 5529.26,5194.95,10.72 5534.54,5193.68,10.72 5606.77,5197.28" allow="delivery bicycle pedestrian">
        <lane index="0">
            <param key="origId" value="243119807"/>
        </lane>
        <lane index="1">
            <param key="origId" value="243119807"/>
        </lane>
        <lane index="2">
            <param key="origId" value="243119807"/>
        </lane>
    </edge>
    <edge id="-243119817#0" from="2505522906" to="2505523082" priority="2" type="highway.service" numLanes="3" speed="5.56" shape="5738.21,5131.26 5847.35,5136.71,10.72 5854.08,5139.55,10.72 5858.78,5144.89,10.72 5859.17,5153.13,10.72 5851.19,5389.60" allow="delivery bicycle pedestrian">
        <lane index="0">
            <param key="origId" value="243119817"/>
        </lane>
        <lane index="1">
            <param key="origId" value="243119817"/>
        </lane>
        <lane index="2">
            <param key="origId" value="243119817"/>
        </lane>
    </edge>
    <edge id="-243119817#1" from="2505523011" to="2505522906" priority="2" type="highway.service" numLanes="3" speed="5.56" allow="delivery bicycle pedestrian">
        <lane index="0">
            <param key="origId" value="243119817"/>
        </lane>
        <lane index="1">
            <param key="origId" value="243119817"/>
        </lane>
        <lane index="2">
            <param key="origId" value="243119817"/>
        </lane>
    </edge>
    <edge id="-243119817#2" from="2505522960" to="2505523011" priority="2" type="highway.service" numLanes="3" speed="5.56" allow="delivery bicycle pedestrian">
        <lane index="0">
            <param key="origId" value="243119817"/>
        </lane>
        <lane index="1">
            <param key="origId" value="243119817"/>
        </lane>
        <lane index="2">
            <param key="origId" value="243119817"/>
        </lane>
    </edge>
    <edge id="-243119817#3" from="2505523068" to="2505522960" priority="2" type="highway.service" numLanes="3" speed="5.56" allow="delivery bicycle pedestrian">
        <lane index="0">
            <param key="origId" value="243119817"/>
        </lane>
        <lane index="1">
            <param key="origId" value="243119817"/>
        </lane>
        <lane index="2">
            <param key="origId" value="243119817"/>
        </lane>
    </edge>
    <edge id="-243119817#4" from="2505523007" to="2505523068" priority="2" type="highway.service" numLanes="3" speed="5.56" shape="5124.82,5166.67 5286.67,5117.77,10.72 5303.54,5114.35" allow="delivery bicycle pedestrian">
        <lane index="0">
            <param key="origId" value="243119817"/>
        </lane>
        <lane index="1">
            <param key="origId" value="243119817"/>
        </lane>
        <lane index="2">
            <param key="origId" value="243119817"/>
        </lane>
    </edge>
    <edge id="-243119817#5" from="2505523006" to="2505523007" priority="2" type="highway.service" numLanes="3" speed="5.56" shape="5121.15,5276.73 4907.54,5269.84,10.72 4909.78,5228.15,10.72 4936.13,5222.74,10.72 5018.80,5196.97,10.72 5124.82,5166.67" allow="delivery bicycle pedestrian">
        <lane index="0">
            <param key="origId" value="243119817"/>
        </lane>
        <lane index="1">
            <param key="origId" value="243119817"/>
        </lane>
        <lane index="2">
            <param key="origId" value="243119817"/>
        </lane>
    </edge>
    <edge id="-243119817#6" from="2505523100" to="2505523006" priority="2" type="highway.service" numLanes="3" speed="5.56" allow="delivery bicycle pedestrian">
        <lane index="0">
            <param key="origId" value="243119817"/>
        </lane>
        <lane index="1">
            <param key="origId" value="243119817"/>
        </lane>
        <lane index="2">
            <param key="origId" value="243119817"/>
        </lane>
    </edge>
    <edge id="-243119817#7" from="2505523036" to="2505523100" priority="2" type="highway.service" numLanes="3" speed="5.56" allow="delivery bicycle pedestrian">
        <lane index="0">
            <param key="origId" value="243119817"/>
        </lane>
        <lane index="1">
            <param key="origId" value="243119817"/>
        </lane>
        <lane index="2">
            <param key="origId" value="243119817"/>
        </lane>
    </edge>
    <edge id="-243119819" from="2505523007" to="2505523006" priority="2" type="highway.service" numLanes="3" speed="5.56" allow="delivery bicycle pedestrian">
        <lane index="0">
            <param key="origId" value="243119819"/>
        </lane>
        <lane index="1">
            <param key="origId" value="243119819"/>
        </lane>
        <lane index="2">
            <param key="origId" value="243119819"/>
        </lane>
    </edge>
    <edge id="-243384968#0" from="2508061873" to="cluster_2508061870_2508061907_5140241021" priority="4" type="highway.residential" numLanes="3" speed="13.89" shape="5197.78,4472.55 5220.34,4448.84,10.72 5302.52,4369.20,10.72 5340.31,4329.32,10.72 5342.50,4232.38" disallow="tram rail_urban rail rail_electric ship">
        <lane index="0">
            <param key="origId" value="243384968 243384970"/>
        </lane>
        <lane index="1">
            <param key="origId" value="243384968"/>
        </lane>
        <lane index="2">
            <param key="origId" value="243384968"/>
        </lane>
    </edge>
    <edge id="-243384968#1" from="2508061829" to="2508061873" priority="4" type="highway.residential" numLanes="3" speed="13.89" disallow="tram rail_urban rail rail_electric ship">
        <lane index="0">
            <param key="origId" value="243384968"/>
        </lane>
        <lane index="1">
            <param key="origId" value="243384968"/>
        </lane>
        <lane index="2">
            <param key="origId" value="243384968"/>
        </lane>
    </edge>
    <edge id="-243384968#2" from="2508061827" to="2508061829" priority="4" type="highway.residential" numLanes="3" speed="13.89" shape="5112.31,4393.79 5125.27,4405.19,10.72 5133.41,4407.89" disallow="tram rail_urban rail rail_electric ship">
        <lane index="0">
            <param key="origId" value="243384968"/>
        </lane>
        <lane index="1">
            <param key="origId" value="243384968"/>
        </lane>
        <lane index="2">
            <param key="origId" value="243384968"/>
        </lane>
    </edge>
    <edge id="-243384977#0" from="2508061887" to="cluster_2508061870_2508061907_5140241021" priority="4" type="highway.residential" numLanes="3" speed="13.89" shape="5256.87,4285.06 5265.44,4277.01,10.72 5296.15,4252.60,10.72 5312.93,4241.39,10.72 5325.61,4235.92,10.72 5342.50,4232.38" disallow="tram rail_urban rail rail_electric ship">
        <lane index="0">
            <param key="origId" value="243384977"/>
        </lane>
        <lane index="1">
            <param key="origId" value="243384977"/>
        </lane>
        <lane index="2">
            <param key="origId" value="243384977"/>
        </lane>
    </edge>
    <edge id="-243384977#1" from="2508061869" to="2508061887" priority="4" type="highway.residential" numLanes="3" speed="13.89" disallow="tram rail_urban rail rail_electric ship">
        <lane index="0">
            <param key="origId" value="243384977"/>
        </lane>
        <lane index="1">
            <param key="origId" value="243384977"/>
        </lane>
        <lane index="2">
            <param key="origId" value="243384977"/>
        </lane>
    </edge>
    <edge id="-243384977#2" from="2508061829" to="2508061869" priority="4" type="highway.residential" numLanes="3" speed="13.89" disallow="tram rail_urban rail rail_electric ship">
        <lane index="0">
            <param key="origId" value="243384977"/>
        </lane>
        <lane index="1">
            <param key="origId" value="243384977"/>
        </lane>
        <lane index="2">
            <param key="origId" value="243384977"/>
        </lane>
    </edge>
    <edge id="-243385768#0" from="2508068095" to="2508068042" priority="5" type="highway.unclassified" numLanes="3" speed="13.89" shape="4861.42,4745.82 4815.44,4738.38,10.36 4784.39,4734.36,10.72 4691.18,4721.34" disallow="tram rail_urban rail rail_electric ship">
        <lane index="0">
            <param key="origId" value="243385768"/>
        </lane>
        <lane index="1">
            <param key="origId" value="243385768"/>
        </lane>
        <lane index="2">
            <param key="origId" value="243385768"/>
        </lane>
    </edge>
    <edge id="-243385768#1" from="2508068037" to="2508068095" priority="5" type="highway.unclassified" numLanes="3" speed="13.89" shape="4948.27,4824.89 4901.52,4762.18,10.72 4861.42,4745.82" disallow="tram rail_urban rail rail_electric ship">
        <lane index="0">
            <param key="origId" value="243385768"/>
        </lane>
        <lane index="1">
            <param key="origId" value="243385768"/>
        </lane>
        <lane index="2">
            <param key="origId" value="243385768"/>
        </lane>
    </edge>
    <edge id="-243385768#2" from="2508068024" to="2508068037" priority="5" type="highway.unclassified" numLanes="3" speed="13.89" disallow="tram rail_urban rail rail_electric ship">
        <lane index="0">
            <param key="origId" value="243385768"/>
        </lane>
        <lane index="1">
            <param key="origId" value="243385768"/>
        </lane>
        <lane index="2">
            <param key="origId" value="243385768"/>
        </lane>
    </edge>
    <edge id="-243385768#3" from="2508068100" to="2508068024" priority="5" type="highway.unclassified" numLanes="3" speed="13.89" disallow="tram rail_urban rail rail_electric ship">
        <lane index="0">
            <param key="origId" value="243385768"/>
        </lane>
        <lane index="1">
            <param key="origId" value="243385768"/>
        </lane>
        <lane index="2">
            <param key="origId" value="243385768"/>
        </lane>
    </edge>
    <edge id="-243385768#4" from="2508068049" to="2508068100" priority="5" type="highway.unclassified" numLanes="3" speed="13.89" shape="5221.24,4936.45 5171.11,4932.04,10.72 5120.70,4919.50" disallow="tram rail_urban rail rail_electric ship">
        <lane index="0">
            <param key="origId" value="243385768"/>
        </lane>
        <lane index="1">
            <param key="origId" value="243385768"/>
        </lane>
        <lane index="2">
            <param key="origId" value="243385768"/>
        </lane>
    </edge>
    <edge id="-243385768#5" from="2508068061" to="2508068049" priority="5" type="highway.unclassified" numLanes="3" speed="13.89" shape="5109.44,5056.82 5118.96,5057.04,10.72 5218.47,5029.57,10.72 5238.85,5025.36,10.72 5247.17,5023.33,10.72 5253.90,5017.97,10.72 5257.32,5012.55,10.72 5260.04,4958.79,10.72 5259.13,4948.90,10.72 5254.30,4941.67,10.72 5247.19,4938.24,10.72 5221.24,4936.45" disallow="tram rail_urban rail rail_electric ship">
        <lane index="0">
            <param key="origId" value="243385768"/>
        </lane>
        <lane index="1">
            <param key="origId" value="243385768"/>
        </lane>
        <lane index="2">
            <param key="origId" value="243385768"/>
        </lane>
    </edge>
    <edge id="-243385768#6" from="2508068047" to="2508068061" priority="5" type="highway.unclassified" numLanes="3" speed="13.89" disallow="tram rail_urban rail rail_electric ship">
        <lane index="0">
            <param key="origId" value="243385768"/>
        </lane>
        <lane index="1">
            <param key="origId" value="243385768"/>
        </lane>
        <lane index="2">
            <param key="origId" value="243385768"/>
        </lane>
    </edge>
    <edge id="-243385770" from="1943410537" to="2508068049" priority="5" type="highway.unclassified" numLanes="3" speed="13.89" disallow="tram rail_urban rail rail_electric ship">
        <lane index="0">
            <param key="origId" value="243385770"/>
        </lane>
        <lane index="1">
            <param key="origId" value="243385770"/>
        </lane>
        <lane index="2">
            <param key="origId" value="243385770"/>
        </lane>
    </edge>
    <edge id="-243385771#0" from="2508068024" to="2508068073" priority="5" type="highway.unclassified" numLanes="3" speed="13.89" disallow="tram rail_urban rail rail_electric ship">
        <lane index="0">
            <param key="origId" value="243385771"/>
        </lane>
        <lane index="1">
            <param key="origId" value="243385771"/>
        </lane>
        <lane index="2">
            <param key="origId" value="243385771"/>
        </lane>
    </edge>
    <edge id="-243385771#1" from="1943410525" to="2508068024" priority="5" type="highway.unclassified" numLanes="3" speed="13.89" disallow="tram rail_urban rail rail_electric ship">
        <lane index="0">
            <param key="origId" value="243385771"/>
        </lane>
        <lane index="1">
            <param key="origId" value="243385771"/>
        </lane>
        <lane index="2">
            <param key="origId" value="243385771"/>
        </lane>
    </edge>
    <edge id="-243385773#0" from="2508068095" to="2508068065" priority="5" type="highway.unclassified" numLanes="3" speed="13.89" disallow="tram rail_urban rail rail_electric ship">
        <lane index="0">
            <param key="origId" value="243385773"/>
        </lane>
        <lane index="1">
            <param key="origId" value="243385773"/>
        </lane>
        <lane index="2">
            <param key="origId" value="243385773"/>
        </lane>
    </edge>
    <edge id="-243385773#1" from="2508068103" to="2508068095" priority="5" type="highway.unclassified" numLanes="3" speed="13.89" disallow="tram rail_urban rail rail_electric ship">
        <lane index="0">
            <param key="origId" value="243385773"/>
        </lane>
        <lane index="1">
            <param key="origId" value="243385773"/>
        </lane>
        <lane index="2">
            <param key="origId" value="243385773"/>
        </lane>
    </edge>
    <edge id="-243385774#0" from="2508068073" to="2508068057" priority="5" type="highway.unclassified" numLanes="3" speed="13.89" shape="4995.71,4986.59 4955.96,4985.10,10.72 4921.21,4983.80,10.72 4906.83,4980.56" disallow="tram rail_urban rail rail_electric ship">
        <lane index="0">
            <param key="origId" value="243385774 479205857 608477070"/>
        </lane>
        <lane index="1">
            <param key="origId" value="243385774"/>
        </lane>
        <lane index="2">
            <param key="origId" value="243385774"/>
        </lane>
    </edge>
    <edge id="-243385774#1" from="2508068050" to="2508068073" priority="5" type="highway.unclassified" numLanes="3" speed="13.89" disallow="tram rail_urban rail rail_electric ship">
        <lane index="0">
            <param key="origId" value="243385774"/>
        </lane>
        <lane index="1">
            <param key="origId" value="243385774"/>
        </lane>
        <lane index="2">
            <param key="origId" value="243385774"/>
        </lane>
    </edge>
    <edge id="-243385774#2" from="2508068105" to="2508068050" priority="5" type="highway.unclassified" numLanes="3" speed="13.89" disallow="tram rail_urban rail rail_electric ship">
        <lane index="0">
            <param key="origId" value="243385774"/>
        </lane>
        <lane index="1">
            <param key="origId" value="243385774"/>
        </lane>
        <lane index="2">
            <param key="origId" value="243385774"/>
        </lane>
    </edge>
    <edge id="-243385774#3" from="cluster_2508068033_2508068070" to="2508068105" priority="5" type="highway.unclassified" numLanes="3" speed="13.89" shape="5112.11,4990.95 5095.28,4990.32" disallow="tram rail_urban rail rail_electric ship">
        <lane index="0">
            <param key="origId" value="243385774"/>
        </lane>
        <lane index="1">
            <param key="origId" value="243385774"/>
        </lane>
        <lane index="2">
            <param key="origId" value="243385774"/>
        </lane>
    </edge>
    <edge id="-243385776#0" from="2508068047" to="2508068050" priority="5" type="highway.unclassified" numLanes="3" speed="13.89" disallow="tram rail_urban rail rail_electric ship">
        <lane index="0">
            <param key="origId" value="243385776"/>
        </lane>
        <lane index="1">
            <param key="origId" value="243385776"/>
        </lane>
        <lane index="2">
            <param key="origId" value="243385776"/>
        </lane>
    </edge>
    <edge id="-243385776#1" from="2508068093" to="2508068047" priority="5" type="highway.unclassified" numLanes="3" speed="13.89" shape="4980.27,5083.30 5017.38,5084.69,10.72 5027.36,5082.14,10.72 5034.21,5077.55,10.72 5036.98,5070.26,10.72 5038.52,5055.13" disallow="tram rail_urban rail rail_electric ship">
        <lane index="0">
            <param key="origId" value="243385776"/>
        </lane>
        <lane index="1">
            <param key="origId" value="243385776"/>
        </lane>
        <lane index="2">
            <param key="origId" value="243385776"/>
        </lane>
    </edge>
    <edge id="-243385776#2" from="2508068057" to="2508068093" priority="5" type="highway.unclassified" numLanes="3" speed="13.89" shape="4906.83,4980.56 4907.05,5031.96,10.72 4906.66,5049.80,10.72 4906.06,5080.53,10.72 4980.27,5083.30" disallow="tram rail_urban rail rail_electric ship">
        <lane index="0">
            <param key="origId" value="243385776"/>
        </lane>
        <lane index="1">
            <param key="origId" value="243385776"/>
        </lane>
        <lane index="2">
            <param key="origId" value="243385776"/>
        </lane>
    </edge>
    <edge id="-243385777#0" from="2508068071" to="2508068061" priority="5" type="highway.unclassified" numLanes="3" speed="13.89" disallow="tram rail_urban rail rail_electric ship">
        <lane index="0">
            <param key="origId" value="243385777"/>
        </lane>
        <lane index="1">
            <param key="origId" value="243385777"/>
        </lane>
        <lane index="2">
            <param key="origId" value="243385777"/>
        </lane>
    </edge>
    <edge id="-243385777#1" from="cluster_2508068033_2508068070" to="2508068071" priority="5" type="highway.unclassified" numLanes="3" speed="13.89" shape="5111.81,4998.64 5111.35,5009.62" disallow="tram rail_urban rail rail_electric ship">
        <lane index="0">
            <param key="origId" value="243385777"/>
        </lane>
        <lane index="1">
            <param key="origId" value="243385777"/>
        </lane>
        <lane index="2">
            <param key="origId" value="243385777"/>
        </lane>
    </edge>
    <edge id="-243385778#0" from="2508068092" to="cluster_2508068033_2508068070" priority="5" type="highway.unclassified" numLanes="3" speed="13.89" shape="5118.90,4956.24 5117.18,4991.15,10.72 5112.11,4990.95" disallow="tram rail_urban rail rail_electric ship">
        <lane index="0">
            <param key="origId" value="243385778 243385774"/>
        </lane>
        <lane index="1">
            <param key="origId" value="243385778"/>
        </lane>
        <lane index="2">
            <param key="origId" value="243385778"/>
        </lane>
    </edge>
    <edge id="-243385778#1" from="2508068100" to="2508068092" priority="5" type="highway.unclassified" numLanes="3" speed="13.89" disallow="tram rail_urban rail rail_electric ship">
        <lane index="0">
            <param key="origId" value="243385778"/>
        </lane>
        <lane index="1">
            <param key="origId" value="243385778"/>
        </lane>
        <lane index="2">
            <param key="origId" value="243385778"/>
        </lane>
    </edge>
    <edge id="-243385780" from="2508068103" to="2508068037" priority="5" type="highway.unclassified" numLanes="3" speed="13.89" disallow="tram rail_urban rail rail_electric ship">
        <lane index="0">
            <param key="origId" value="243385780"/>
        </lane>
        <lane index="1">
            <param key="origId" value="243385780"/>
        </lane>
        <lane index="2">
            <param key="origId" value="243385780"/>
        </lane>
    </edge>
    <edge id="-243387654" from="2508090913" to="5140241022" priority="5" type="highway.unclassified" numLanes="3" speed="13.89" shape="6597.95,4146.26 6539.29,4187.87,10.72 6489.56,4176.73" disallow="tram rail_urban rail rail_electric ship">
        <lane index="0">
            <param key="origId" value="243387654"/>
        </lane>
        <lane index="1">
            <param key="origId" value="243387654"/>
        </lane>
        <lane index="2">
            <param key="origId" value="243387654"/>
        </lane>
    </edge>
    <edge id="-243387657#0" from="5140241202" to="2508090888" priority="5" type="highway.unclassified" numLanes="3" speed="13.89" disallow="tram rail_urban rail rail_electric ship">
        <lane index="0">
            <param key="origId" value="243387657"/>
        </lane>
        <lane index="1">
            <param key="origId" value="243387657"/>
        </lane>
        <lane index="2">
            <param key="origId" value="243387657"/>
        </lane>
    </edge>
    <edge id="-243387667" from="2508090935" to="2364917728" priority="4" type="highway.residential" numLanes="3" speed="13.89" shape="6490.79,4560.54 6531.45,4536.12,10.72 6529.29,4502.40" disallow="tram rail_urban rail rail_electric ship">
        <lane index="0">
            <param key="origId" value="243387667"/>
        </lane>
        <lane index="1">
            <param key="origId" value="243387667"/>
        </lane>
        <lane index="2">
            <param key="origId" value="243387667"/>
        </lane>
    </edge>
    <edge id="-243387669" from="2508090879" to="5140241202" priority="5" type="highway.unclassified" numLanes="3" speed="13.89" shape="6414.50,4852.75 6042.04,4839.45,10.72 6060.25,4980.05,10.72 6070.34,5060.64" disallow="tram rail_urban rail rail_electric ship">
        <lane index="0">
            <param key="origId" value="243387669 243387657"/>
        </lane>
        <lane index="1">
            <param key="origId" value="243387669 243387657"/>
        </lane>
        <lane index="2">
            <param key="origId" value="243387669 243387657"/>
        </lane>
    </edge>
    <edge id="-402047416" from="2508061873" to="cluster_2508061870_2508061907_5140241021" priority="4" type="highway.residential" numLanes="3" speed="13.89" shape="5197.78,4472.55 5241.37,4502.50,10.72 5411.71,4534.84,10.72 5417.44,4535.21,10.72 5422.89,4534.00,10.72 5426.47,4530.56,10.72 5428.82,4525.36,10.72 5440.96,4219.67,10.72 5439.73,4212.56,10.72 5437.43,4206.97,10.72 5433.81,4202.67,10.72 5426.50,4197.15,10.72 5410.72,4195.80,10.72 5384.08,4196.54,10.72 5350.65,4209.34,10.72 5343.07,4218.17" disallow="tram rail_urban rail rail_electric ship">
        <lane index="0">
            <param key="origId" value="402047416 402047415"/>
        </lane>
        <lane index="1">
            <param key="origId" value="402047416 402047415"/>
        </lane>
        <lane index="2">
            <param key="origId" value="402047416 402047415"/>
        </lane>
    </edge>
    <edge id="-402048867#1" from="5179129478" to="cluster_2508090929_5179129473" name="打石二路" priority="6" type="highway.tertiary" numLanes="3" speed="22.22" shape="5528.12,4477.34 5482.09,4474.88" disallow="tram rail_urban rail rail_electric ship">
        <lane index="0">
            <param key="origId" value="402048867"/>
        </lane>
        <lane index="1">
            <param key="origId" value="402048867"/>
        </lane>
        <lane index="2">
            <param key="origId" value="402048867"/>
        </lane>
    </edge>
    <edge id="-402048867#2" from="5345110852" to="5179129478" name="打石二路" priority="6" type="highway.tertiary" numLanes="3" speed="22.22" disallow="tram rail_urban rail rail_electric ship">
        <lane index="0">
            <param key="origId" value="402048867"/>
        </lane>
        <lane index="1">
            <param key="origId" value="402048867"/>
        </lane>
        <lane index="2">
            <param key="origId" value="402048867"/>
        </lane>
    </edge>
    <edge id="-402048867#3" from="5179129483" to="5345110852" name="打石二路" priority="6" type="highway.tertiary" numLanes="3" speed="22.22" shape="5776.11,4491.40 5730.38,4489.62,10.72 5685.59,4487.70,10.72 5638.52,4484.78" disallow="tram rail_urban rail rail_electric ship">
        <lane index="0">
            <param key="origId" value="402048867"/>
        </lane>
        <lane index="1">
            <param key="origId" value="402048867"/>
        </lane>
        <lane index="2">
            <param key="origId" value="402048867"/>
        </lane>
    </edge>
    <edge id="-402048867#6" from="6240866858" to="5179129483" name="打石二路" priority="6" type="highway.tertiary" numLanes="3" speed="22.22" shape="6221.31,4501.28 6018.96,4496.80,10.72 6000.80,4496.38,10.72 5776.11,4491.40" disallow="tram rail_urban rail rail_electric ship">
        <lane index="0">
            <param key="origId" value="402048867"/>
        </lane>
        <lane index="1">
            <param key="origId" value="402048867"/>
        </lane>
        <lane index="2">
            <param key="origId" value="402048867"/>
        </lane>
    </edge>