<?xml version="1.0" encoding="UTF-8"?>

<net version="1.0" junctionCornerDetail="5" limitTurnSpeed="5.50" xmlns:xsi="http://www.w3.org/2001/XMLSchema-instance" xsi:noNamespaceSchemaLocation="http://sumo.dlr.de/xsd/net_file.xsd">

    <location netOffset="-796231.36,-2495307.88" convBoundary="4514.05,3667.09,7048.65,6586.79" origBoundary="113.880279,22.538435,113.979658,22.607982" projParameter="+proj=utm +zone=49 +ellps=WGS84 +datum=WGS84 +units=m +no_defs"/>

    <type id="highway.bridleway" priority="1" numLanes="3" speed="2.78" allow="pedestrian" oneway="1" width="3.50"/>
    <type id="highway.bus_guideway" priority="1" numLanes="3" speed="27.78" allow="bus" oneway="1"/>
    <type id="highway.cycleway" priority="1" numLanes="3" speed="8.33" allow="bicycle" oneway="0" width="1.00"/>
    <type id="highway.footway" priority="1" numLanes="3" speed="2.78" allow="pedestrian" oneway="1" width="3.50"/>
    <type id="highway.ford" priority="1" numLanes="3" speed="2.78" allow="army" oneway="0"/>
    <type id="highway.living_street" priority="3" numLanes="3" speed="2.78" disallow="tram rail_urban rail rail_electric ship" oneway="0"/>
    <type id="highway.motorway" priority="13" numLanes="3" speed="44.44" allow="private emergency authority army vip passenger hov taxi bus coach delivery truck trailer motorcycle evehicle custom1 custom2" oneway="1"/>
    <type id="highway.motorway_link" priority="12" numLanes="1" speed="22.22" allow="private emergency authority army vip passenger hov taxi bus coach delivery truck trailer motorcycle evehicle custom1 custom2" oneway="1"/>
    <type id="highway.path" priority="1" numLanes="3" speed="2.78" allow="bicycle pedestrian" oneway="1" width="3.50"/>
    <type id="highway.pedestrian" priority="1" numLanes="3" speed="2.78" allow="pedestrian" oneway="1" width="3.50"/>
    <type id="highway.primary" priority="9" numLanes="3" speed="27.78" disallow="tram rail_urban rail rail_electric ship" oneway="0"/>
    <type id="highway.primary_link" priority="8" numLanes="1" speed="22.22" disallow="tram rail_urban rail rail_electric ship" oneway="0"/>
    <type id="highway.raceway" priority="14" numLanes="3" speed="83.33" allow="vip" oneway="0"/>
    <type id="highway.residential" priority="4" numLanes="3" speed="13.89" disallow="tram rail_urban rail rail_electric ship" oneway="0"/>
    <type id="highway.secondary" priority="7" numLanes="3" speed="27.78" disallow="tram rail_urban rail rail_electric ship" oneway="0"/>
    <type id="highway.secondary_link" priority="6" numLanes="1" speed="22.22" disallow="tram rail_urban rail rail_electric ship" oneway="0"/>
    <type id="highway.service" priority="2" numLanes="3" speed="5.56" allow="delivery bicycle pedestrian" oneway="0"/>
    <type id="highway.stairs" priority="1" numLanes="3" speed="1.39" allow="pedestrian" oneway="1" width="3.50"/>
    <type id="highway.step" priority="1" numLanes="3" speed="1.39" allow="pedestrian" oneway="1" width="3.50"/>
    <type id="highway.steps" priority="1" numLanes="3" speed="1.39" allow="pedestrian" oneway="1" width="3.50"/>
    <type id="highway.tertiary" priority="6" numLanes="3" speed="22.22" disallow="tram rail_urban rail rail_electric ship" oneway="0"/>
    <type id="highway.track" priority="1" numLanes="3" speed="5.56" disallow="tram rail_urban rail rail_electric ship" oneway="0"/>
    <type id="highway.trunk" priority="11" numLanes="3" speed="27.78" disallow="tram rail_urban rail rail_electric bicycle pedestrian ship" oneway="0"/>
    <type id="highway.trunk_link" priority="10" numLanes="1" speed="22.22" disallow="tram rail_urban rail rail_electric bicycle pedestrian ship" oneway="0"/>
    <type id="highway.unclassified" priority="5" numLanes="3" speed="13.89" disallow="tram rail_urban rail rail_electric ship" oneway="0"/>
    <type id="highway.unsurfaced" priority="1" numLanes="3" speed="8.33" disallow="tram rail_urban rail rail_electric ship" oneway="0"/>
    <type id="railway.light_rail" priority="15" numLanes="3" speed="27.78" allow="rail_urban" oneway="1"/>
    <type id="railway.preserved" priority="15" numLanes="3" speed="27.78" allow="rail" oneway="1"/>
    <type id="railway.rail" priority="15" numLanes="3" speed="83.33" allow="rail rail_electric" oneway="1"/>
    <type id="railway.subway" priority="15" numLanes="3" speed="27.78" allow="rail_urban" oneway="1"/>
    <type id="railway.tram" priority="15" numLanes="3" speed="13.89" allow="tram" oneway="1"/>

    <edge id=":168274320#1-AddedOnRampNode_0" function="internal">
        <lane id=":168274320#1-AddedOnRampNode_0_0" index="0" disallow="tram rail_urban rail rail_electric ship" speed="27.78" length="1.60" shape="4741.54,4103.76 4740.31,4102.74"/>
        <lane id=":168274320#1-AddedOnRampNode_0_1" index="1" disallow="tram rail_urban rail rail_electric ship" speed="27.78" length="1.60" shape="4739.07,4101.72 4737.84,4100.70"/>
        <lane id=":168274320#1-AddedOnRampNode_0_2" index="2" disallow="tram rail_urban rail rail_electric ship" speed="27.78" length="1.60" shape="4736.60,4099.68 4735.37,4098.66"/>
    </edge>
    <edge id=":183920405#10-AddedOffRampNode_0" function="internal">
        <lane id=":183920405#10-AddedOffRampNode_0_0" index="0" disallow="tram rail_urban rail rail_electric ship" speed="22.22" length="1.63" shape="5505.26,4035.63 5506.82,4036.07"/>
        <lane id=":183920405#10-AddedOffRampNode_0_1" index="1" disallow="tram rail_urban rail rail_electric ship" speed="22.22" length="1.63" shape="5502.08,4035.30 5503.64,4035.76"/>
        <lane id=":183920405#10-AddedOffRampNode_0_2" index="2" disallow="tram rail_urban rail rail_electric ship" speed="22.22" length="1.63" shape="5498.89,4034.97 5500.45,4035.44"/>
    </edge>
    <edge id=":183920405#10-AddedOnRampNode_0" function="internal">
        <lane id=":183920405#10-AddedOnRampNode_0_0" index="0" disallow="tram rail_urban rail rail_electric ship" speed="22.22" length="1.60" shape="5478.65,4032.63 5480.25,4032.68,-0.00"/>
        <lane id=":183920405#10-AddedOnRampNode_0_1" index="1" disallow="tram rail_urban rail rail_electric ship" speed="22.22" length="1.60" shape="5481.85,4032.73 5483.45,4032.78,-0.00"/>
        <lane id=":183920405#10-AddedOnRampNode_0_2" index="2" disallow="tram rail_urban rail rail_electric ship" speed="22.22" length="1.60" shape="5485.05,4032.83 5486.65,4032.89,-0.00"/>
    </edge>
    <edge id=":183920405#5-AddedOffRampNode_0" function="internal">
        <lane id=":183920405#5-AddedOffRampNode_0_0" index="0" disallow="tram rail_urban rail rail_electric ship" speed="22.22" length="1.60" shape="5469.87,4319.96 5468.27,4319.90"/>
        <lane id=":183920405#5-AddedOffRampNode_0_1" index="1" disallow="tram rail_urban rail rail_electric ship" speed="22.22" length="1.60" shape="5473.07,4320.08 5471.47,4320.02"/>
        <lane id=":183920405#5-AddedOffRampNode_0_2" index="2" disallow="tram rail_urban rail rail_electric ship" speed="22.22" length="1.60" shape="5476.27,4320.20 5474.67,4320.14"/>
    </edge>
    <edge id=":183920406#12-AddedOffRampNode_0" function="internal">
        <lane id=":183920406#12-AddedOffRampNode_0_0" index="0" disallow="tram rail_urban rail rail_electric ship" speed="27.78" length="1.60" shape="5784.67,5093.15 5784.62,5094.75"/>
        <lane id=":183920406#12-AddedOffRampNode_0_1" index="1" disallow="tram rail_urban rail rail_electric ship" speed="27.78" length="1.60" shape="5784.78,5089.95 5784.73,5091.55"/>
        <lane id=":183920406#12-AddedOffRampNode_0_2" index="2" disallow="tram rail_urban rail rail_electric ship" speed="27.78" length="1.60" shape="5784.89,5086.75 5784.84,5088.35"/>
    </edge>
    <edge id=":183920406#14-AddedOnRampNode_0" function="internal">
        <lane id=":183920406#14-AddedOnRampNode_0_0" index="0" disallow="tram rail_urban rail rail_electric ship" speed="27.78" length="1.63" shape="5360.54,5079.28 5360.21,5077.68"/>
        <lane id=":183920406#14-AddedOnRampNode_0_1" index="1" disallow="tram rail_urban rail rail_electric ship" speed="27.78" length="1.63" shape="5360.46,5076.08 5360.12,5074.48"/>
        <lane id=":183920406#14-AddedOnRampNode_0_2" index="2" disallow="tram rail_urban rail rail_electric ship" speed="27.78" length="1.63" shape="5360.38,5072.88 5360.03,5071.29"/>
    </edge>
    <edge id=":183920406#18-AddedOnRampNode_0" function="internal">
        <lane id=":183920406#18-AddedOnRampNode_0_0" index="0" disallow="tram rail_urban rail rail_electric ship" speed="27.78" length="1.63" shape="4558.51,5182.16 4558.27,5180.55"/>
        <lane id=":183920406#18-AddedOnRampNode_0_1" index="1" disallow="tram rail_urban rail rail_electric ship" speed="27.78" length="1.63" shape="4558.63,5178.97 4558.38,5177.35"/>
        <lane id=":183920406#18-AddedOnRampNode_0_2" index="2" disallow="tram rail_urban rail rail_electric ship" speed="27.78" length="1.63" shape="4558.74,5175.77 4558.50,5174.16"/>
    </edge>
    <edge id=":1943410433_0" function="internal">
        <lane id=":1943410433_0_0" index="0" disallow="tram rail_urban rail rail_electric ship" speed="27.78" length="1.64" shape="4804.18,4025.43 4805.12,4026.81"/>
        <lane id=":1943410433_0_1" index="1" disallow="tram rail_urban rail rail_electric ship" speed="27.78" length="1.64" shape="4801.64,4023.49 4802.65,4024.77"/>
        <lane id=":1943410433_0_2" index="2" disallow="tram rail_urban rail rail_electric ship" speed="27.78" length="1.64" shape="4799.09,4021.54 4800.18,4022.73"/>
    </edge>
    <edge id=":1943410489_0" function="internal">
        <lane id=":1943410489_0_0" index="0" disallow="tram rail_urban rail rail_electric ship" speed="22.22" length="1.63" shape="4849.34,4595.94 4849.46,4597.57"/>
        <lane id=":1943410489_0_1" index="1" disallow="tram rail_urban rail rail_electric ship" speed="22.22" length="1.63" shape="4848.38,4592.89 4848.58,4594.50"/>
        <lane id=":1943410489_0_2" index="2" disallow="tram rail_urban rail rail_electric ship" speed="22.22" length="1.63" shape="4847.42,4589.83 4847.70,4591.42"/>
    </edge>
    <edge id=":1943410525_0" function="internal">
        <lane id=":1943410525_0_0" index="0" disallow="tram rail_urban rail rail_electric ship" speed="6.51" length="8.74" shape="5036.11,4856.40 5034.02,4855.25 5032.04,4855.01 5030.18,4855.70 5028.42,4857.31"/>
    </edge>
    <edge id=":1943410525_1" function="internal">
        <lane id=":1943410525_1_0" index="0" disallow="tram rail_urban rail rail_electric ship" speed="22.22" length="26.17" shape="5038.03,4853.84 5031.80,4849.12 5027.62,4845.78 5023.61,4842.23 5017.90,4836.89"/>
        <lane id=":1943410525_1_1" index="1" disallow="tram rail_urban rail rail_electric ship" speed="22.22" length="26.17" shape="5039.96,4851.29 5033.81,4846.63 5029.68,4843.33 5025.73,4839.83 5020.09,4834.56"/>
    </edge>
    <edge id=":1943410525_3" function="internal">
        <lane id=":1943410525_3_0" index="0" disallow="tram rail_urban rail rail_electric ship" speed="22.22" length="25.12" shape="5026.67,4827.57 5032.08,4832.62 5035.87,4835.98 5039.83,4839.15 5045.73,4843.62"/>
        <lane id=":1943410525_3_1" index="1" disallow="tram rail_urban rail rail_electric ship" speed="22.22" length="25.12" shape="5024.48,4829.90 5029.96,4835.02 5033.81,4838.43 5037.83,4841.64 5043.81,4846.18"/>
    </edge>
    <edge id=":1943410525_5" function="internal">
        <lane id=":1943410525_5_0" index="0" disallow="tram rail_urban rail rail_electric ship" speed="10.96" length="26.17" shape="5022.29,4832.23 5027.30,4838.17 5029.59,4843.99 5029.13,4849.69 5025.95,4855.27"/>
    </edge>
    <edge id=":1943410525_6" function="internal">
        <lane id=":1943410525_6_0" index="0" disallow="tram rail_urban rail rail_electric ship" speed="10.44" length="23.66" shape="5022.29,4832.23 5026.27,4837.22 5027.80,4842.39 5026.87,4847.72 5023.48,4853.23"/>
    </edge>
    <edge id=":1943410525_7" function="internal">
        <lane id=":1943410525_7_0" index="0" disallow="tram rail_urban rail rail_electric ship" speed="6.61" length="8.89" shape="5016.08,4847.12 5017.37,4845.03 5017.74,4843.02 5017.19,4841.08 5015.71,4839.22"/>
    </edge>
    <edge id=":1943410525_8" function="internal">
        <lane id=":1943410525_8_0" index="0" disallow="tram rail_urban rail rail_electric ship" speed="11.37" length="28.73" shape="5018.55,4849.16 5024.33,4843.88 5030.46,4841.62 5036.96,4842.39 5043.81,4846.18"/>
    </edge>
    <edge id=":1943410525_9" function="internal">
        <lane id=":1943410525_9_0" index="0" disallow="tram rail_urban rail rail_electric ship" speed="10.37" length="23.73" shape="5021.01,4851.19 5025.79,4846.84 5030.86,4844.97 5036.22,4845.60 5041.88,4848.73"/>
    </edge>
    <edge id=":1943410537_0" function="internal">
        <lane id=":1943410537_0_0" index="0" disallow="tram rail_urban rail rail_electric ship" speed="6.62" length="9.40" shape="5236.33,4914.06 5233.85,4914.27 5232.03,4915.28 5230.86,4917.10 5230.34,4919.72"/>
    </edge>
    <edge id=":1943410537_1" function="internal">
        <lane id=":1943410537_1_0" index="0" disallow="tram rail_urban rail rail_electric ship" speed="22.22" length="27.65" shape="5236.54,4910.87 5209.00,4909.72"/>
        <lane id=":1943410537_1_1" index="1" disallow="tram rail_urban rail rail_electric ship" speed="22.22" length="27.65" shape="5236.76,4907.67 5209.05,4906.52"/>
    </edge>
    <edge id=":1943410537_3" function="internal">
        <lane id=":1943410537_3_0" index="0" disallow="tram rail_urban rail rail_electric ship" speed="22.22" length="28.15" shape="5209.21,4896.92 5237.41,4898.10"/>
        <lane id=":1943410537_3_1" index="1" disallow="tram rail_urban rail rail_electric ship" speed="22.22" length="28.15" shape="5209.16,4900.12 5237.20,4901.29"/>
    </edge>
    <edge id=":1943410537_5" function="internal">
        <lane id=":1943410537_5_0" index="0" disallow="tram rail_urban rail rail_electric ship" speed="10.83" length="27.89" shape="5209.11,4903.32 5217.39,4904.45 5223.15,4907.52 5226.41,4912.55 5227.15,4919.52"/>
    </edge>
    <edge id=":1943410537_6" function="internal">
        <lane id=":1943410537_6_0" index="0" disallow="tram rail_urban rail rail_electric ship" speed="10.31" length="25.17" shape="5209.11,4903.32 5215.98,4904.42 5220.75,4907.45 5223.41,4912.41 5223.95,4919.31"/>
    </edge>
    <edge id=":1943410537_7" function="internal">
        <lane id=":1943410537_7_0" index="0" disallow="tram rail_urban rail rail_electric ship" speed="6.38" length="9.02" shape="5214.22,4918.68 5214.05,4916.19 5213.12,4914.41 5211.42,4913.32 5208.95,4912.92"/>
    </edge>
    <edge id=":1943410537_8" function="internal">
        <lane id=":1943410537_8_0" index="0" disallow="tram rail_urban rail rail_electric ship" speed="11.48" length="30.14" shape="5217.41,4918.89 5219.19,4910.72 5223.07,4905.06 5229.08,4901.92 5237.20,4901.29"/>
    </edge>
    <edge id=":1943410537_9" function="internal">
        <lane id=":1943410537_9_0" index="0" disallow="tram rail_urban rail rail_electric ship" speed="10.49" length="24.98" shape="5220.61,4919.09 5222.08,4912.31 5225.29,4907.62 5230.26,4905.01 5236.98,4904.48"/>
    </edge>
    <edge id=":1943410578_0" function="internal">
        <lane id=":1943410578_0_0" index="0" disallow="tram rail_urban rail rail_electric ship" speed="27.78" length="1.63" shape="5684.83,5091.37 5684.56,5089.76"/>
        <lane id=":1943410578_0_1" index="1" disallow="tram rail_urban rail rail_electric ship" speed="27.78" length="1.63" shape="5684.94,5088.17 5684.70,5086.56"/>
        <lane id=":1943410578_0_2" index="2" disallow="tram rail_urban rail rail_electric ship" speed="27.78" length="1.63" shape="5685.04,5084.98 5684.84,5083.37"/>
    </edge>
    <edge id=":1943410593_0" function="internal">
        <lane id=":1943410593_0_0" index="0" disallow="tram rail_urban rail rail_electric ship" speed="27.78" length="1.62" shape="6130.74,5106.67 6130.35,5108.25"/>
        <lane id=":1943410593_0_1" index="1" disallow="tram rail_urban rail rail_electric ship" speed="27.78" length="1.62" shape="6130.84,5103.47 6130.48,5105.05"/>
        <lane id=":1943410593_0_2" index="2" disallow="tram rail_urban rail rail_electric ship" speed="27.78" length="1.62" shape="6130.94,5100.28 6130.62,5101.86"/>
    </edge>
    <edge id=":1943410926_0" function="internal">
        <lane id=":1943410926_0_0" index="0" disallow="tram rail_urban rail rail_electric ship" speed="3.65" length="4.67" shape="6395.38,5666.04 6394.53,5667.20,-0.00 6393.71,5667.57,-0.00 6392.93,5667.14,-0.00 6392.18,5665.90,-0.00"/>
    </edge>
    <edge id=":2132748650_0" function="internal">
        <lane id=":2132748650_0_0" index="0" disallow="tram rail_urban rail rail_electric ship" speed="22.22" length="1.63" shape="5966.19,5153.10 5967.80,5152.82"/>
        <lane id=":2132748650_0_1" index="1" disallow="tram rail_urban rail rail_electric ship" speed="22.22" length="1.63" shape="5969.39,5153.20 5971.00,5152.98"/>
        <lane id=":2132748650_0_2" index="2" disallow="tram rail_urban rail rail_electric ship" speed="22.22" length="1.63" shape="5972.58,5153.30 5974.19,5153.15"/>
    </edge>
    <edge id=":222765850#2-AddedOnRampNode_0" function="internal">
        <lane id=":222765850#2-AddedOnRampNode_0_0" index="0" disallow="tram rail_urban rail rail_electric ship" speed="22.22" length="1.60" shape="5989.86,5247.04 5988.26,5246.96"/>
        <lane id=":222765850#2-AddedOnRampNode_0_1" index="1" disallow="tram rail_urban rail rail_electric ship" speed="22.22" length="1.60" shape="5986.66,5246.89 5985.06,5246.81"/>
        <lane id=":222765850#2-AddedOnRampNode_0_2" index="2" disallow="tram rail_urban rail rail_electric ship" speed="22.22" length="1.60" shape="5983.46,5246.74 5981.86,5246.66"/>
    </edge>
    <edge id=":2317023663_0" function="internal">
        <lane id=":2317023663_0_0" index="0" disallow="tram rail_urban rail rail_electric ship" speed="27.78" length="1.61" shape="5361.33,5048.93 5361.45,5047.32"/>
        <lane id=":2317023663_0_1" index="1" disallow="tram rail_urban rail rail_electric ship" speed="27.78" length="1.61" shape="5361.58,5052.12 5361.54,5050.52"/>
        <lane id=":2317023663_0_2" index="2" disallow="tram rail_urban rail rail_electric ship" speed="27.78" length="1.61" shape="5361.83,5055.31 5361.63,5053.72"/>
    </edge>
    <edge id=":2317023669_0" function="internal">
        <lane id=":2317023669_0_0" index="0" disallow="tram rail_urban rail rail_electric ship" speed="27.78" length="8.08" shape="5208.38,5071.45,-3.04 5208.85,5071.32,5.02"/>
        <lane id=":2317023669_0_1" index="1" disallow="tram rail_urban rail rail_electric ship" speed="27.78" length="8.08" shape="5209.34,5074.51,-3.04 5209.62,5074.43,5.03"/>
        <lane id=":2317023669_0_2" index="2" disallow="tram rail_urban rail rail_electric ship" speed="27.78" length="8.08" shape="5210.29,5077.56,-3.04 5210.38,5077.54,5.04"/>
    </edge>
    <edge id=":2364917717_0" function="internal">
        <lane id=":2364917717_0_0" index="0" disallow="tram rail_urban rail rail_electric ship" speed="10.48" length="16.96" shape="6458.30,4539.17 6452.78,4541.74 6448.82,4544.29 6446.41,4546.83 6445.55,4549.35"/>
    </edge>
    <edge id=":2364917717_1" function="internal">
        <lane id=":2364917717_1_0" index="0" disallow="tram rail_urban rail rail_electric ship" speed="11.50" length="20.58" shape="6457.08,4536.21 6450.73,4539.25 6446.16,4542.43 6443.36,4545.76 6442.35,4549.24"/>
    </edge>
    <edge id=":2364917717_2" function="internal">
        <lane id=":2364917717_2_0" index="0" disallow="tram rail_urban rail rail_electric ship" speed="12.44" length="24.23" shape="6455.87,4533.25 6448.68,4536.76 6443.49,4540.58 6440.32,4544.70 6439.15,4549.13"/>
    </edge>
    <edge id=":2364917717_3" function="internal">
        <lane id=":2364917717_3_0" index="0" disallow="tram rail_urban rail rail_electric ship" speed="3.65" length="4.67" shape="6455.87,4533.25 6454.46,4532.96 6453.78,4532.37 6453.85,4531.48 6454.66,4530.29"/>
    </edge>
    <edge id=":2364917717_4" function="internal">
        <lane id=":2364917717_4_0" index="0" disallow="tram rail_urban rail rail_electric ship" speed="5.79" length="9.15" shape="6446.43,4520.36 6446.73,4523.03 6447.80,4524.59 6449.63,4525.03 6452.23,4524.36"/>
    </edge>
    <edge id=":2364917717_5" function="internal">
        <lane id=":2364917717_5_0" index="0" disallow="tram rail_urban rail rail_electric ship" speed="6.70" length="12.69" shape="6446.43,4520.36 6446.77,4524.52 6448.05,4527.07 6450.28,4528.01 6453.44,4527.33"/>
    </edge>
    <edge id=":2364917717_6" function="internal">
        <lane id=":2364917717_6_0" index="0" disallow="tram rail_urban rail rail_electric ship" speed="7.51" length="16.30" shape="6446.43,4520.36 6446.81,4526.02 6448.31,4529.56 6450.92,4530.99 6454.66,4530.29"/>
    </edge>
    <edge id=":2364917717_7" function="internal">
        <lane id=":2364917717_7_0" index="0" disallow="tram rail_urban rail rail_electric ship" speed="22.22" length="28.98" shape="6446.43,4520.36 6445.55,4549.35"/>
        <lane id=":2364917717_7_1" index="1" disallow="tram rail_urban rail rail_electric ship" speed="22.22" length="28.98" shape="6443.24,4520.27 6442.35,4549.24"/>
        <lane id=":2364917717_7_2" index="2" disallow="tram rail_urban rail rail_electric ship" speed="22.22" length="28.98" shape="6440.04,4520.18 6439.15,4549.13"/>
    </edge>
    <edge id=":2364917723_0" function="internal">
        <lane id=":2364917723_0_0" index="0" disallow="tram rail_urban rail rail_electric ship" speed="3.65" length="4.67" shape="6843.50,4386.27 6844.94,4386.16 6845.74,4386.55 6845.92,4387.43 6845.46,4388.79"/>
    </edge>
    <edge id=":2364917728_0" function="internal">
        <lane id=":2364917728_0_0" index="0" disallow="tram rail_urban rail rail_electric ship" speed="5.94" length="9.09" shape="6522.40,4520.02 6521.87,4517.46 6520.66,4515.95 6518.79,4515.50 6516.24,4516.10"/>
    </edge>
    <edge id=":2364917728_1" function="internal">
        <lane id=":2364917728_1_0" index="0" disallow="tram rail_urban rail rail_electric ship" speed="12.40" length="31.73" shape="6525.60,4519.82 6526.01,4510.30 6528.61,4503.03 6533.41,4497.99 6540.40,4495.19"/>
    </edge>
    <edge id=":2364917728_2" function="internal">
        <lane id=":2364917728_2_0" index="0" disallow="tram rail_urban rail rail_electric ship" speed="11.49" length="27.09" shape="6528.79,4519.61 6529.11,4511.35 6531.26,4505.04 6535.24,4500.70 6541.05,4498.33"/>
    </edge>
    <edge id=":2364917728_3" function="internal">
        <lane id=":2364917728_3_0" index="0" disallow="tram rail_urban rail rail_electric ship" speed="8.17" length="13.24" shape="6543.00,4507.73 6540.73,4508.84 6539.20,4511.09 6538.41,4514.48 6538.37,4519.00"/>
    </edge>
    <edge id=":2364917728_4" function="internal">
        <lane id=":2364917728_4_0" index="0" disallow="tram rail_urban rail rail_electric ship" speed="13.89" length="28.91" shape="6542.35,4504.59 6534.05,4506.42 6528.45,4507.99 6522.98,4510.00 6515.07,4513.12"/>
        <lane id=":2364917728_4_1" index="1" disallow="tram rail_urban rail rail_electric ship" speed="13.89" length="28.91" shape="6541.70,4501.46 6533.25,4503.32 6527.54,4504.92 6521.96,4506.96 6513.91,4510.14"/>
    </edge>
    <edge id=":2364917728_6" function="internal">
        <lane id=":2364917728_6_0" index="0" disallow="tram rail_urban rail rail_electric ship" speed="13.89" length="30.53" shape="6510.41,4501.20 6518.82,4497.90 6524.81,4495.72 6530.93,4494.01 6539.75,4492.06"/>
        <lane id=":2364917728_6_1" index="1" disallow="tram rail_urban rail rail_electric ship" speed="13.89" length="30.53" shape="6511.57,4504.18 6519.90,4500.90 6525.71,4498.78 6531.66,4497.11 6540.40,4495.19"/>
    </edge>
    <edge id=":2364917728_8" function="internal">
        <lane id=":2364917728_8_0" index="0" disallow="tram rail_urban rail rail_electric ship" speed="10.14" length="28.99" shape="6512.74,4507.16 6520.08,4506.10 6527.21,4508.07 6532.71,4512.60 6535.18,4519.20"/>
    </edge>
    <edge id=":2364917728_9" function="internal">
        <lane id=":2364917728_9_0" index="0" disallow="tram rail_urban rail rail_electric ship" speed="10.05" length="28.40" shape="6512.74,4507.16 6520.70,4505.28 6526.55,4506.70 6530.32,4511.41 6531.98,4519.41"/>
    </edge>
    <edge id=":2366083151_0" function="internal">
        <lane id=":2366083151_0_0" index="0" disallow="tram rail_urban rail rail_electric ship" speed="6.81" length="9.68" shape="5663.22,4182.58 5660.79,4182.98 5659.01,4184.18 5657.90,4186.16 5657.46,4188.92"/>
    </edge>
    <edge id=":2366083151_1" function="internal">
        <lane id=":2366083151_1_0" index="0" disallow="tram rail_urban rail rail_electric ship" speed="7.59" length="12.24" shape="5663.22,4182.58 5659.39,4182.98 5656.61,4184.16 5654.90,4186.10 5654.26,4188.81"/>
    </edge>
    <edge id=":2366083151_2" function="internal">
        <lane id=":2366083151_2_0" index="0" disallow="tram rail_urban rail rail_electric ship" speed="8.33" length="14.97" shape="5663.22,4182.58 5657.98,4182.98 5654.21,4184.14 5651.90,4186.04 5651.06,4188.69"/>
    </edge>
    <edge id=":2366083151_3" function="internal">
        <lane id=":2366083151_3_0" index="0" disallow="tram rail_urban rail rail_electric ship" speed="22.22" length="27.20" shape="5663.20,4179.38 5636.00,4179.49"/>
        <lane id=":2366083151_3_1" index="1" disallow="tram rail_urban rail rail_electric ship" speed="22.22" length="27.20" shape="5663.19,4176.18 5635.99,4176.29"/>
    </edge>
    <edge id=":2366083151_5" function="internal">
        <lane id=":2366083151_5_0" index="0" disallow="tram rail_urban rail rail_electric ship" speed="6.42" length="9.04" shape="5641.47,4188.33 5641.20,4185.86 5640.21,4184.09 5638.48,4183.03 5636.01,4182.69"/>
    </edge>
    <edge id=":2366083151_6" function="internal">
        <lane id=":2366083151_6_0" index="0" disallow="tram rail_urban rail rail_electric ship" speed="7.93" length="14.35" shape="5644.66,4188.45 5644.25,4184.52 5642.66,4181.72 5639.92,4180.04 5636.00,4179.49"/>
    </edge>
    <edge id=":2366083151_7" function="internal">
        <lane id=":2366083151_7_0" index="0" disallow="tram rail_urban rail rail_electric ship" speed="9.20" length="19.66" shape="5647.86,4188.57 5647.29,4183.18 5645.12,4179.34 5641.36,4177.04 5635.99,4176.29"/>
    </edge>
    <edge id=":2366083161_0" function="internal">
        <lane id=":2366083161_0_0" index="0" disallow="tram rail_urban rail rail_electric ship" speed="7.58" length="12.87" shape="4539.41,4598.39 4535.84,4597.83 4533.34,4596.31 4531.91,4593.83 4531.55,4590.38"/>
    </edge>
    <edge id=":2366083161_1" function="internal">
        <lane id=":2366083161_1_0" index="0" disallow="tram rail_urban rail rail_electric ship" speed="5.98" length="7.61" shape="4539.47,4595.19 4537.32,4594.87 4535.82,4593.98 4534.97,4592.54 4534.75,4590.53"/>
    </edge>
    <edge id=":2366083161_2" function="internal">
        <lane id=":2366083161_2_0" index="0" disallow="tram rail_urban rail rail_electric ship" speed="3.75" length="2.35" shape="4539.53,4592.00 4538.81,4591.90 4538.31,4591.65 4538.02,4591.24 4537.95,4590.68"/>
    </edge>
    <edge id=":243387686#10-AddedOffRampNode_0" function="internal">
        <lane id=":243387686#10-AddedOffRampNode_0_0" index="0" disallow="tram rail_urban rail rail_electric ship" speed="22.22" length="9.74" shape="5329.84,4945.24 5329.86,4945.50,2.89 5329.87,4945.67,4.86 5329.87,4945.85,6.84 5329.86,4946.11,9.72"/>
        <lane id=":243387686#10-AddedOffRampNode_0_1" index="1" disallow="tram rail_urban rail rail_electric ship" speed="22.22" length="9.74" shape="5326.65,4945.52 5326.66,4945.67,2.89 5326.67,4945.78,4.86 5326.67,4945.89,6.84 5326.67,4946.04,9.72"/>
        <lane id=":243387686#10-AddedOffRampNode_0_2" index="2" disallow="tram rail_urban rail rail_electric ship" speed="22.22" length="9.74" shape="5323.46,4945.80 5323.46,4945.85,2.89 5323.47,4945.89,4.86 5323.47,4945.92,6.84 5323.47,4945.98,9.72"/>
    </edge>
    <edge id=":243387686#5-AddedOffRampNode_0" function="internal">
        <lane id=":243387686#5-AddedOffRampNode_0_0" index="0" disallow="tram rail_urban rail rail_electric ship" speed="22.22" length="1.63" shape="5490.16,4333.12 5491.75,4333.47"/>
        <lane id=":243387686#5-AddedOffRampNode_0_1" index="1" disallow="tram rail_urban rail rail_electric ship" speed="22.22" length="1.63" shape="5486.97,4333.01 5488.55,4333.36"/>
        <lane id=":243387686#5-AddedOffRampNode_0_2" index="2" disallow="tram rail_urban rail rail_electric ship" speed="22.22" length="1.63" shape="5483.77,4332.90 5485.36,4333.25"/>
    </edge>
    <edge id=":243387686#5-AddedOnRampNode_0" function="internal">
        <lane id=":243387686#5-AddedOnRampNode_0_0" index="0" disallow="tram rail_urban rail rail_electric ship" speed="22.22" length="1.63" shape="5492.35,4315.85 5490.74,4316.09"/>
        <lane id=":243387686#5-AddedOnRampNode_0_1" index="1" disallow="tram rail_urban rail rail_electric ship" speed="22.22" length="1.63" shape="5489.16,4315.74 5487.54,4315.98"/>
        <lane id=":243387686#5-AddedOnRampNode_0_2" index="2" disallow="tram rail_urban rail rail_electric ship" speed="22.22" length="1.63" shape="5485.96,4315.63 5484.35,4315.87"/>
    </edge>
    <edge id=":243387686#8-AddedOnRampNode_0" function="internal">
        <lane id=":243387686#8-AddedOnRampNode_0_0" index="0" disallow="tram rail_urban rail rail_electric ship" speed="22.22" length="1.63" shape="5458.42,4615.07 5456.82,4614.74"/>
        <lane id=":243387686#8-AddedOnRampNode_0_1" index="1" disallow="tram rail_urban rail rail_electric ship" speed="22.22" length="1.63" shape="5455.46,4613.85 5453.86,4613.52"/>
        <lane id=":243387686#8-AddedOnRampNode_0_2" index="2" disallow="tram rail_urban rail rail_electric ship" speed="22.22" length="1.63" shape="5452.50,4612.63 5450.90,4612.30"/>
    </edge>
    <edge id=":2505522906_0" function="internal">