<?xml version="1.0" encoding="UTF-8"?>

<connections version="1.1" xmlns:xsi="http://www.w3.org/2001/XMLSchema-instance" xsi:noNamespaceSchemaLocation="http://sumo.dlr.de/xsd/connections_file.xsd">
    <connection from="-183920399#0" to="183920406#4" fromLane="0" toLane="0"/>
    <connection from="-183920399#0" to="360123643#1" fromLane="0" toLane="0"/>
    <connection from="-183920399#0" to="360123643#1" fromLane="1" toLane="1"/>
    <connection from="-183920399#0" to="293326333#17" fromLane="2" toLane="2"/>

    <connection from="-183920399#1" to="360123634#0" fromLane="0" toLane="0"/>
    <connection from="-183920399#1" to="-183920399#0" fromLane="0" toLane="0"/>
    <connection from="-183920399#1" to="-183920399#0" fromLane="1" toLane="1"/>
    <connection from="-183920399#1" to="-183920399#0" fromLane="2" toLane="2"/>
    <connection from="-183920399#1" to="183920399#1" fromLane="2" toLane="2"/>

    <connection from="-227855146#0" to="227855146#0" fromLane="2" toLane="2"/>

    <connection from="-227855146#1" to="-227855146#0" fromLane="0" toLane="0"/>
    <connection from="-227855146#1" to="-227855146#0" fromLane="1" toLane="1"/>
    <connection from="-227855146#1" to="243387667" fromLane="2" toLane="1"/>
    <connection from="-227855146#1" to="243387667" fromLane="2" toLane="2"/>

    <connection from="-243119791#2" to="243119817#2" fromLane="0" toLane="0"/>
    <connection from="-243119791#2" to="-243119817#1" fromLane="1" toLane="1"/>
    <connection from="-243119791#2" to="-243119817#1" fromLane="2" toLane="2"/>

    <connection from="-243119791#3" to="243119807" fromLane="0" toLane="0"/>
    <connection from="-243119791#3" to="-243119791#2" fromLane="1" toLane="1"/>
    <connection from="-243119791#3" to="-243119791#2" fromLane="2" toLane="2"/>

    <connection from="-243119791#4" to="-243119817#7" fromLane="0" toLane="0"/>
    <connection from="-243119791#4" to="-243119791#3" fromLane="1" toLane="1"/>
    <connection from="-243119791#4" to="-243119791#3" fromLane="2" toLane="2"/>

    <connection from="-243119805" to="243119817#1" fromLane="0" toLane="0"/>
    <connection from="-243119805" to="-243119817#0" fromLane="1" toLane="1"/>
    <connection from="-243119805" to="-243119817#0" fromLane="2" toLane="2"/>

    <connection from="-243119807" to="-243119791#2" fromLane="0" toLane="0"/>
    <connection from="-243119807" to="243119791#3" fromLane="1" toLane="1"/>
    <connection from="-243119807" to="243119791#3" fromLane="2" toLane="2"/>

    <connection from="-243119817#0" to="243119817#0" fromLane="2" toLane="2"/>

    <connection from="-243119817#1" to="-243119817#0" fromLane="0" toLane="0"/>
    <connection from="-243119817#1" to="-243119817#0" fromLane="1" toLane="1"/>
    <connection from="-243119817#1" to="243119805" fromLane="2" toLane="1"/>
    <connection from="-243119817#1" to="243119805" fromLane="2" toLane="2"/>

    <connection from="-243119817#2" to="-243119817#1" fromLane="0" toLane="0"/>
    <connection from="-243119817#2" to="-243119817#1" fromLane="1" toLane="1"/>
    <connection from="-243119817#2" to="243119791#2" fromLane="2" toLane="1"/>
    <connection from="-243119817#2" to="243119791#2" fromLane="2" toLane="2"/>

    <connection from="-243119817#3" to="-243119817#2" fromLane="0" toLane="0"/>
    <connection from="-243119817#3" to="-243119817#2" fromLane="1" toLane="1"/>
    <connection from="-243119817#3" to="-243119817#2" fromLane="2" toLane="2"/>

    <connection from="-243119817#4" to="243119818" fromLane="0" toLane="0"/>
    <connection from="-243119817#4" to="-243119817#3" fromLane="0" toLane="0"/>
    <connection from="-243119817#4" to="-243119817#3" fromLane="1" toLane="1"/>
    <connection from="-243119817#4" to="-243119817#3" fromLane="2" toLane="2"/>

    <connection from="-243119817#5" to="-243119817#4" fromLane="0" toLane="0"/>
    <connection from="-243119817#5" to="-243119817#4" fromLane="1" toLane="1"/>
    <connection from="-243119817#5" to="-243119819" fromLane="2" toLane="1"/>
    <connection from="-243119817#5" to="-243119819" fromLane="2" toLane="2"/>

    <connection from="-243119817#6" to="-243119817#5" fromLane="0" toLane="0"/>
    <connection from="-243119817#6" to="-243119817#5" fromLane="1" toLane="1"/>
    <connection from="-243119817#6" to="243119819" fromLane="2" toLane="1"/>
    <connection from="-243119817#6" to="243119819" fromLane="2" toLane="2"/>

    <connection from="-243119817#7" to="-243119817#6" fromLane="0" toLane="0"/>
    <connection from="-243119817#7" to="-243119817#6" fromLane="1" toLane="1"/>
    <connection from="-243119817#7" to="-243119807" fromLane="2" toLane="1"/>
    <connection from="-243119817#7" to="-243119807" fromLane="2" toLane="2"/>

    <connection from="-243119819" to="243119817#6" fromLane="0" toLane="0"/>
    <connection from="-243119819" to="-243119817#5" fromLane="1" toLane="1"/>
    <connection from="-243119819" to="-243119817#5" fromLane="2" toLane="2"/>

    <connection from="-243384968#0" to="243384977#0" fromLane="0" toLane="0"/>
    <connection from="-243384968#0" to="362735582#14" fromLane="0" toLane="1"/>
    <connection from="-243384968#0" to="402047415" fromLane="0" toLane="0"/>
    <connection from="-243384968#0" to="402047415" fromLane="1" toLane="1"/>
    <connection from="-243384968#0" to="402047415" fromLane="2" toLane="2"/>

    <connection from="-243384968#1" to="-243384968#0" fromLane="0" toLane="0"/>
    <connection from="-243384968#1" to="-402047416" fromLane="1" toLane="1"/>
    <connection from="-243384968#1" to="-402047416" fromLane="2" toLane="2"/>

    <connection from="-243384968#2" to="-243384977#2" fromLane="0" toLane="0"/>
    <connection from="-243384968#2" to="-243384968#1" fromLane="1" toLane="1"/>
    <connection from="-243384968#2" to="-243384968#1" fromLane="2" toLane="2"/>

    <connection from="-243384977#0" to="362735582#14" fromLane="0" toLane="0"/>
    <connection from="-243384977#0" to="402047415" fromLane="0" toLane="0"/>
    <connection from="-243384977#0" to="402047415" fromLane="1" toLane="1"/>
    <connection from="-243384977#0" to="402047415" fromLane="2" toLane="2"/>
    <connection from="-243384977#0" to="243384970#2" fromLane="2" toLane="2"/>

    <connection from="-243384977#1" to="-243384977#0" fromLane="0" toLane="0"/>
    <connection from="-243384977#1" to="-243384977#0" fromLane="1" toLane="1"/>
    <connection from="-243384977#1" to="-243384977#0" fromLane="2" toLane="2"/>
    <connection from="-243384977#1" to="243384977#1" fromLane="2" toLane="2"/>

    <connection from="-243384977#2" to="-243384977#1" fromLane="0" toLane="0"/>
    <connection from="-243384977#2" to="-243384977#1" fromLane="1" toLane="1"/>
    <connection from="-243384977#2" to="-243384977#1" fromLane="2" toLane="2"/>
    <connection from="-243384977#2" to="243384977#2" fromLane="2" toLane="2"/>

    <connection from="-243385768#0" to="243385768#0" fromLane="2" toLane="2"/>

    <connection from="-243385768#1" to="243385773#1" fromLane="0" toLane="0"/>
    <connection from="-243385768#1" to="-243385768#0" fromLane="0" toLane="0"/>
    <connection from="-243385768#1" to="-243385768#0" fromLane="1" toLane="1"/>
    <connection from="-243385768#1" to="-243385773#0" fromLane="2" toLane="2"/>

    <connection from="-243385768#2" to="243385780" fromLane="0" toLane="0"/>
    <connection from="-243385768#2" to="-243385768#1" fromLane="1" toLane="1"/>
    <connection from="-243385768#2" to="-243385768#1" fromLane="2" toLane="2"/>

    <connection from="-243385768#3" to="-243385771#0" fromLane="0" toLane="0"/>
    <connection from="-243385768#3" to="-243385768#2" fromLane="0" toLane="0"/>
    <connection from="-243385768#3" to="-243385768#2" fromLane="1" toLane="1"/>
    <connection from="-243385768#3" to="243385771#1" fromLane="2" toLane="2"/>

    <connection from="-243385768#4" to="-243385778#1" fromLane="0" toLane="0"/>
    <connection from="-243385768#4" to="-243385768#3" fromLane="1" toLane="1"/>
    <connection from="-243385768#4" to="-243385768#3" fromLane="2" toLane="2"/>

    <connection from="-243385768#5" to="-243385768#4" fromLane="0" toLane="0"/>
    <connection from="-243385768#5" to="-243385768#4" fromLane="1" toLane="1"/>
    <connection from="-243385768#5" to="243385770" fromLane="2" toLane="1"/>
    <connection from="-243385768#5" to="243385770" fromLane="2" toLane="2"/>

    <connection from="-243385768#6" to="243385777#0" fromLane="0" toLane="0"/>
    <connection from="-243385768#6" to="-243385768#5" fromLane="1" toLane="1"/>
    <connection from="-243385768#6" to="-243385768#5" fromLane="2" toLane="2"/>

    <connection from="-243385770" to="243385768#5" fromLane="0" toLane="0"/>
    <connection from="-243385770" to="-243385768#4" fromLane="1" toLane="1"/>
    <connection from="-243385770" to="-243385768#4" fromLane="2" toLane="2"/>

    <connection from="-243385771#0" to="243385774#1" fromLane="0" toLane="0"/>
    <connection from="-243385771#0" to="-243385774#0" fromLane="1" toLane="1"/>
    <connection from="-243385771#0" to="-243385774#0" fromLane="2" toLane="2"/>

    <connection from="-243385771#1" to="243385768#3" fromLane="0" toLane="0"/>
    <connection from="-243385771#1" to="-243385771#0" fromLane="0" toLane="0"/>
    <connection from="-243385771#1" to="-243385771#0" fromLane="1" toLane="1"/>
    <connection from="-243385771#1" to="-243385768#2" fromLane="2" toLane="2"/>

    <connection from="-243385773#0" to="529070163#5" fromLane="0" toLane="0"/>
    <connection from="-243385773#0" to="-529070163#4" fromLane="1" toLane="1"/>
    <connection from="-243385773#0" to="-529070163#4" fromLane="2" toLane="2"/>

    <connection from="-243385773#1" to="-243385768#0" fromLane="0" toLane="0"/>
    <connection from="-243385773#1" to="-243385773#0" fromLane="0" toLane="0"/>
    <connection from="-243385773#1" to="-243385773#0" fromLane="1" toLane="1"/>
    <connection from="-243385773#1" to="243385768#1" fromLane="2" toLane="2"/>

    <connection from="-243385774#0" to="-243385776#2" fromLane="0" toLane="0"/>
    <connection from="-243385774#0" to="-608477070#1" fromLane="1" toLane="1"/>
    <connection from="-243385774#0" to="-608477070#1" fromLane="2" toLane="2"/>

    <connection from="-243385774#1" to="-243385774#0" fromLane="0" toLane="0"/>
    <connection from="-243385774#1" to="-243385774#0" fromLane="1" toLane="1"/>
    <connection from="-243385774#1" to="243385771#0" fromLane="2" toLane="1"/>
    <connection from="-243385774#1" to="243385771#0" fromLane="2" toLane="2"/>

    <connection from="-243385774#2" to="243385776#0" fromLane="0" toLane="0"/>
    <connection from="-243385774#2" to="-243385774#1" fromLane="1" toLane="1"/>
    <connection from="-243385774#2" to="-243385774#1" fromLane="2" toLane="2"/>

    <connection from="-243385774#3" to="-243385774#2" fromLane="0" toLane="0"/>
    <connection from="-243385774#3" to="-243385774#2" fromLane="1" toLane="1"/>
    <connection from="-243385774#3" to="-243385774#2" fromLane="2" toLane="2"/>
    <connection from="-243385774#3" to="243385774#3" fromLane="2" toLane="2"/>

    <connection from="-243385776#0" to="-243385774#1" fromLane="0" toLane="0"/>
    <connection from="-243385776#0" to="243385774#2" fromLane="1" toLane="1"/>
    <connection from="-243385776#0" to="243385774#2" fromLane="2" toLane="2"/>

    <connection from="-243385776#1" to="-243385776#0" fromLane="0" toLane="0"/>
    <connection from="-243385776#1" to="-243385776#0" fromLane="1" toLane="1"/>
    <connection from="-243385776#1" to="-243385768#6" fromLane="2" toLane="1"/>
    <connection from="-243385776#1" to="-243385768#6" fromLane="2" toLane="2"/>

    <connection from="-243385776#2" to="-243385776#1" fromLane="0" toLane="0"/>
    <connection from="-243385776#2" to="-243385776#1" fromLane="1" toLane="1"/>
    <connection from="-243385776#2" to="-243385776#1" fromLane="2" toLane="2"/>
    <connection from="-243385776#2" to="243385776#2" fromLane="2" toLane="2"/>

    <connection from="-243385777#0" to="-243385768#5" fromLane="0" toLane="0"/>
    <connection from="-243385777#0" to="243385768#6" fromLane="1" toLane="1"/>
    <connection from="-243385777#0" to="243385768#6" fromLane="2" toLane="2"/>

    <connection from="-243385777#1" to="-243385777#0" fromLane="0" toLane="0"/>
    <connection from="-243385777#1" to="-243385777#0" fromLane="1" toLane="1"/>
    <connection from="-243385777#1" to="-243385777#0" fromLane="2" toLane="2"/>
    <connection from="-243385777#1" to="243385777#1" fromLane="2" toLane="2"/>

    <connection from="-243385778#0" to="-243385777#1" fromLane="0" toLane="0"/>
    <connection from="-243385778#0" to="-243385774#3" fromLane="0" toLane="0"/>
    <connection from="-243385778#0" to="-243385774#3" fromLane="1" toLane="1"/>
    <connection from="-243385778#0" to="-243385774#3" fromLane="2" toLane="2"/>
    <connection from="-243385778#0" to="243385774#4" fromLane="2" toLane="2"/>

    <connection from="-243385778#1" to="-243385778#0" fromLane="0" toLane="0"/>
    <connection from="-243385778#1" to="-243385778#0" fromLane="1" toLane="1"/>
    <connection from="-243385778#1" to="-243385778#0" fromLane="2" toLane="2"/>
    <connection from="-243385778#1" to="243385778#1" fromLane="2" toLane="2"/>

    <connection from="-243385780" to="-243385768#1" fromLane="0" toLane="0"/>
    <connection from="-243385780" to="243385768#2" fromLane="1" toLane="1"/>
    <connection from="-243385780" to="243385768#2" fromLane="2" toLane="2"/>

    <connection from="-243387654" to="362735582#0" fromLane="0" toLane="0"/>
    <connection from="-243387654" to="362735582#0" fromLane="1" toLane="1"/>
    <connection from="-243387654" to="362735582#0" fromLane="2" toLane="2"/>
    <connection from="-243387654" to="243387654" fromLane="2" toLane="2"/>

    <connection from="-243387657#0" to="293326333#12" fromLane="0" toLane="0"/>
    <connection from="-243387657#0" to="293326333#12" fromLane="1" toLane="1"/>
    <connection from="-243387657#0" to="293326333#12" fromLane="2" toLane="2"/>
    <connection from="-243387657#0" to="243387657#0" fromLane="2" toLane="2"/>

    <connection from="-243387667" to="227855146#1" fromLane="0" toLane="0"/>
    <connection from="-243387667" to="-227855146#0" fromLane="1" toLane="1"/>
    <connection from="-243387667" to="-227855146#0" fromLane="2" toLane="2"/>

    <connection from="-243387669" to="-243387657#0" fromLane="0" toLane="0"/>
    <connection from="-243387669" to="-243387657#0" fromLane="1" toLane="1"/>
    <connection from="-243387669" to="-243387657#0" fromLane="2" toLane="2"/>
    <connection from="-243387669" to="243387657#1" fromLane="2" toLane="2"/>

    <connection from="-402047416" to="243384970#2" fromLane="0" toLane="0"/>
    <connection from="-402047416" to="243384977#0" fromLane="0" toLane="1"/>
    <connection from="-402047416" to="362735582#14" fromLane="0" toLane="0"/>
    <connection from="-402047416" to="362735582#14" fromLane="1" toLane="1"/>
    <connection from="-402047416" to="362735582#14" fromLane="2" toLane="2"/>

    <connection from="-402048867#1" to="243387686#7" fromLane="0" toLane="0"/>
    <connection from="-402048867#1" to="183920405#5" fromLane="1" toLane="1"/>
    <connection from="-402048867#1" to="183920405#5" fromLane="2" toLane="2"/>

    <connection from="-402048867#2" to="-402048867#1" fromLane="0" toLane="0"/>
    <connection from="-402048867#2" to="-402048867#1" fromLane="1" toLane="1"/>
    <connection from="-402048867#2" to="-402048867#1" fromLane="2" toLane="2"/>
    <connection from="-402048867#2" to="402048867#2" fromLane="2" toLane="2"/>

    <connection from="-402048867#3" to="-553781209#0" fromLane="0" toLane="0"/>
    <connection from="-402048867#3" to="-402048867#2" fromLane="0" toLane="0"/>
    <connection from="-402048867#3" to="-402048867#2" fromLane="1" toLane="1"/>
    <connection from="-402048867#3" to="553781209#1" fromLane="2" toLane="2"/>

    <connection from="-402048867#6" to="-666569435" fromLane="0" toLane="0"/>
    <connection from="-402048867#6" to="-402048867#3" fromLane="1" toLane="1"/>
    <connection from="-402048867#6" to="-402048867#3" fromLane="2" toLane="2"/>

    <connection from="-402048867#7" to="-402048867#6" fromLane="0" toLane="0"/>
    <connection from="-402048867#7" to="-402048867#6" fromLane="1" toLane="1"/>
    <connection from="-402048867#7" to="666569439" fromLane="2" toLane="1"/>
    <connection from="-402048867#7" to="666569439" fromLane="2" toLane="2"/>

    <connection from="-402048867#8" to="-402048867#7" fromLane="0" toLane="0"/>
    <connection from="-402048867#8" to="-402048867#7" fromLane="1" toLane="1"/>
    <connection from="-402048867#8" to="-402048867#7" fromLane="2" toLane="2"/>
    <connection from="-402048867#8" to="360123643#5" fromLane="2" toLane="2"/>

    <connection from="-477814981" to="-243385773#1" fromLane="0" toLane="0"/>
    <connection from="-477814981" to="-243385773#1" fromLane="1" toLane="1"/>
    <connection from="-477814981" to="-243385780" fromLane="2" toLane="1"/>
    <connection from="-477814981" to="-243385780" fromLane="2" toLane="2"/>

    <connection from="-529070132#0" to="-529070132#1" fromLane="0" toLane="0"/>
    <connection from="-529070132#0" to="-529070132#1" fromLane="1" toLane="1"/>
    <connection from="-529070132#0" to="-529070132#1" fromLane="2" toLane="2"/>
    <connection from="-529070132#0" to="529070132#0" fromLane="2" toLane="2"/>

    <connection from="-529070132#1" to="-529070132#0" fromLane="0" toLane="0"/>
    <connection from="-529070132#1" to="-529070132#0" fromLane="1" toLane="1"/>
    <connection from="-529070132#1" to="-529070132#0" fromLane="2" toLane="2"/>
    <connection from="-529070132#1" to="529070132#1" fromLane="2" toLane="2"/>

    <connection from="-529070163#1" to="183920405#4" fromLane="0" toLane="0"/>
    <connection from="-529070163#1" to="243387686#10" fromLane="1" toLane="1"/>
    <connection from="-529070163#1" to="243387686#10" fromLane="2" toLane="2"/>

    <connection from="-529070163#2" to="-529070163#1" fromLane="0" toLane="0"/>
    <connection from="-529070163#2" to="-529070163#1" fromLane="1" toLane="1"/>
    <connection from="-529070163#2" to="-529070163#1" fromLane="2" toLane="2"/>
    <connection from="-529070163#2" to="529070163#2" fromLane="2" toLane="2"/>

    <connection from="-529070163#3" to="-529070163#2" fromLane="0" toLane="0"/>
    <connection from="-529070163#3" to="-529070163#2" fromLane="1" toLane="1"/>
    <connection from="-529070163#3" to="-243385770" fromLane="2" toLane="1"/>
    <connection from="-529070163#3" to="-243385770" fromLane="2" toLane="2"/>

    <connection from="-529070163#4" to="-529070163#3" fromLane="0" toLane="0"/>
    <connection from="-529070163#4" to="-529070163#3" fromLane="1" toLane="1"/>
    <connection from="-529070163#4" to="-243385771#1" fromLane="2" toLane="1"/>
    <connection from="-529070163#4" to="-243385771#1" fromLane="2" toLane="2"/>

    <connection from="-529070163#5" to="-529070163#4" fromLane="0" toLane="0"/>
    <connection from="-529070163#5" to="-529070163#4" fromLane="1" toLane="1"/>
    <connection from="-529070163#5" to="243385773#0" fromLane="2" toLane="1"/>
    <connection from="-529070163#5" to="243385773#0" fromLane="2" toLane="2"/>

    <connection from="-529070163#6" to="-529070163#5" fromLane="0" toLane="0"/>
    <connection from="-529070163#6" to="-529070163#5" fromLane="1" toLane="1"/>
    <connection from="-529070163#6" to="-529070163#5" fromLane="2" toLane="2"/>
    <connection from="-529070163#6" to="529070163#6" fromLane="2" toLane="2"/>

    <connection from="-553781209#0" to="-402048867#3" fromLane="0" toLane="0"/>
    <connection from="-553781209#0" to="402048867#4" fromLane="1" toLane="1"/>
    <connection from="-553781209#0" to="402048867#4" fromLane="2" toLane="2"/>

    <connection from="-553781209#1" to="402048867#3" fromLane="0" toLane="0"/>
    <connection from="-553781209#1" to="-553781209#0" fromLane="0" toLane="0"/>
    <connection from="-553781209#1" to="-553781209#0" fromLane="1" toLane="1"/>
    <connection from="-553781209#1" to="-402048867#2" fromLane="2" toLane="2"/>

    <connection from="-608477070#0" to="608477070#0" fromLane="2" toLane="2"/>

    <connection from="-608477070#1" to="-608477070#0" fromLane="0" toLane="0"/>
    <connection from="-608477070#1" to="-608477070#0" fromLane="1" toLane="1"/>
    <connection from="-608477070#1" to="-477814981" fromLane="2" toLane="1"/>
    <connection from="-608477070#1" to="-477814981" fromLane="2" toLane="2"/>

    <connection from="-666569435" to="-402048867#2" fromLane="0" toLane="0"/>
    <connection from="-666569435" to="553781209#1" fromLane="0" toLane="0"/>
    <connection from="-666569435" to="553781209#1" fromLane="1" toLane="1"/>
    <connection from="-666569435" to="402048867#3" fromLane="2" toLane="2"/>

    <connection from="-666569439" to="402048867#7" fromLane="0" toLane="0"/>
    <connection from="-666569439" to="-402048867#6" fromLane="1" toLane="1"/>
    <connection from="-666569439" to="-402048867#6" fromLane="2" toLane="2"/>

    <connection from="168274320#0" to="168274320#1-AddedOnRampEdge" fromLane="0" toLane="0"/>
    <connection from="168274320#0" to="168274320#1-AddedOnRampEdge" fromLane="1" toLane="1"/>
    <connection from="168274320#0" to="168274320#1-AddedOnRampEdge" fromLane="2" toLane="2"/>

    <connection from="168274320#1" to="529070115#1" fromLane="0" toLane="0"/>
    <connection from="168274320#1" to="168274320#4" fromLane="0" toLane="0"/>
    <connection from="168274320#1" to="168274320#4" fromLane="1" toLane="1"/>
    <connection from="168274320#1" to="168274320#4" fromLane="2" toLane="2"/>
    <connection from="168274320#1" to="362735582#20" fromLane="2" toLane="1"/>
    <connection from="168274320#1" to="362735582#20" fromLane="2" toLane="2"/>

    <connection from="168274320#1-AddedOnRampEdge" to="168274320#1" fromLane="0" toLane="0"/>
    <connection from="168274320#1-AddedOnRampEdge" to="168274320#1" fromLane="1" toLane="1"/>
    <connection from="168274320#1-AddedOnRampEdge" to="168274320#1" fromLane="2" toLane="2"/>

    <connection from="168274320#4" to="293326333#1" fromLane="0" toLane="0"/>
    <connection from="168274320#4" to="183920406#20" fromLane="2" toLane="1"/>
    <connection from="168274320#4" to="183920406#20" fromLane="2" toLane="2"/>

    <connection from="183920399#0" to="183920399#1" fromLane="0" toLane="0"/>
    <connection from="183920399#0" to="183920399#1" fromLane="1" toLane="1"/>
    <connection from="183920399#0" to="183920399#1" fromLane="2" toLane="2"/>
    <connection from="183920399#0" to="360123634#0" fromLane="2" toLane="0"/>
    <connection from="183920399#0" to="-183920399#0" fromLane="2" toLane="2"/>

    <connection from="183920399#1" to="-183920399#1" fromLane="2" toLane="2"/>

    <connection from="183920404#0" to="183920404#3" fromLane="0" toLane="0"/>
    <connection from="183920404#0" to="183920404#3" fromLane="1" toLane="1"/>
    <connection from="183920404#0" to="183920404#3" fromLane="2" toLane="2"/>

    <connection from="183920404#3" to="183920404#4" fromLane="0" toLane="0"/>
    <connection from="183920404#3" to="183920404#4" fromLane="1" toLane="1"/>
    <connection from="183920404#3" to="183920404#4" fromLane="2" toLane="2"/>

    <connection from="183920404#4" to="183920406#10" fromLane="0" toLane="0"/>
    <connection from="183920404#4" to="293326333#11" fromLane="1" toLane="1"/>
    <connection from="183920404#4" to="293326333#11" fromLane="2" toLane="2"/>

    <connection from="183920405#1" to="183920405#2" fromLane="0" toLane="0"/>
    <connection from="183920405#1" to="183920405#2" fromLane="1" toLane="1"/>
    <connection from="183920405#1" to="183920405#2" fromLane="2" toLane="2"/>

    <connection from="183920405#10" to="183920405#10-AddedOffRampEdge" fromLane="0" toLane="0"/>
    <connection from="183920405#10" to="183920405#10-AddedOffRampEdge" fromLane="1" toLane="1"/>
    <connection from="183920405#10" to="183920405#10-AddedOffRampEdge" fromLane="2" toLane="2"/>

    <connection from="183920405#10-AddedOffRampEdge" to="243387686#1" fromLane="0" toLane="0"/>
    <connection from="183920405#10-AddedOffRampEdge" to="243387686#1" fromLane="1" toLane="1"/>
    <connection from="183920405#10-AddedOffRampEdge" to="243387686#1" fromLane="2" toLane="2"/>

    <connection from="183920405#10-AddedOnRampEdge" to="183920405#10" fromLane="0" toLane="0"/>
    <connection from="183920405#10-AddedOnRampEdge" to="183920405#10" fromLane="1" toLane="1"/>
    <connection from="183920405#10-AddedOnRampEdge" to="183920405#10" fromLane="2" toLane="2"/>

    <connection from="183920405#2" to="183920405#3" fromLane="0" toLane="0"/>
    <connection from="183920405#2" to="183920405#3" fromLane="1" toLane="1"/>
    <connection from="183920405#2" to="183920405#3" fromLane="2" toLane="2"/>

    <connection from="183920405#3" to="529070163#1" fromLane="0" toLane="0"/>
    <connection from="183920405#3" to="183920405#4" fromLane="1" toLane="1"/>
    <connection from="183920405#3" to="183920405#4" fromLane="2" toLane="2"/>

    <connection from="183920405#4" to="183920405#5" fromLane="0" toLane="0"/>
    <connection from="183920405#4" to="183920405#5" fromLane="1" toLane="1"/>
    <connection from="183920405#4" to="402048867#1" fromLane="2" toLane="1"/>
    <connection from="183920405#4" to="402048867#1" fromLane="2" toLane="2"/>

    <connection from="183920405#5" to="183920405#5-AddedOffRampEdge" fromLane="0" toLane="0"/>
    <connection from="183920405#5" to="183920405#5-AddedOffRampEdge" fromLane="1" toLane="1"/>
    <connection from="183920405#5" to="183920405#5-AddedOffRampEdge" fromLane="2" toLane="2"/>

    <connection from="183920405#5-AddedOffRampEdge" to="183920405#6" fromLane="0" toLane="0"/>
    <connection from="183920405#5-AddedOffRampEdge" to="183920405#6" fromLane="1" toLane="1"/>
    <connection from="183920405#5-AddedOffRampEdge" to="183920405#6" fromLane="2" toLane="2"/>

    <connection from="183920405#6" to="362735582#12" fromLane="0" toLane="0"/>
    <connection from="183920405#6" to="183920405#9" fromLane="0" toLane="0"/>
    <connection from="183920405#6" to="183920405#9" fromLane="1" toLane="1"/>
    <connection from="183920405#6" to="529070115#6" fromLane="2" toLane="2"/>

    <connection from="183920405#9" to="183920405#10-AddedOnRampEdge" fromLane="0" toLane="0"/>
    <connection from="183920405#9" to="183920405#10-AddedOnRampEdge" fromLane="1" toLane="1"/>
    <connection from="183920405#9" to="183920405#10-AddedOnRampEdge" fromLane="2" toLane="2"/>

    <connection from="183920406#0" to="183920406#1" fromLane="0" toLane="0"/>
    <connection from="183920406#0" to="183920406#1" fromLane="1" toLane="1"/>
    <connection from="183920406#0" to="183920406#1" fromLane="2" toLane="2"/>

    <connection from="183920406#1" to="183920406#2" fromLane="0" toLane="0"/>
    <connection from="183920406#1" to="183920406#2" fromLane="1" toLane="1"/>
    <connection from="183920406#1" to="183920406#2" fromLane="2" toLane="2"/>

    <connection from="183920406#10" to="183920406#11" fromLane="0" toLane="0"/>
    <connection from="183920406#10" to="183920406#11" fromLane="1" toLane="1"/>
    <connection from="183920406#10" to="183920406#11" fromLane="2" toLane="2"/>

    <connection from="183920406#11" to="183920406#12" fromLane="0" toLane="0"/>
    <connection from="183920406#11" to="183920406#12" fromLane="1" toLane="1"/>
    <connection from="183920406#11" to="183920406#12" fromLane="2" toLane="2"/>

    <connection from="183920406#12" to="183920406#12-AddedOffRampEdge" fromLane="0" toLane="0"/>
    <connection from="183920406#12" to="183920406#12-AddedOffRampEdge" fromLane="1" toLane="1"/>
    <connection from="183920406#12" to="183920406#12-AddedOffRampEdge" fromLane="2" toLane="2"/>

    <connection from="183920406#12-AddedOffRampEdge" to="183920406#13" fromLane="0" toLane="0"/>
    <connection from="183920406#12-AddedOffRampEdge" to="183920406#13" fromLane="1" toLane="1"/>
    <connection from="183920406#12-AddedOffRampEdge" to="183920406#13" fromLane="2" toLane="2"/>

    <connection from="183920406#13" to="183920406#14-AddedOnRampEdge" fromLane="0" toLane="0"/>
    <connection from="183920406#13" to="183920406#14-AddedOnRampEdge" fromLane="1" toLane="1"/>
    <connection from="183920406#13" to="183920406#14-AddedOnRampEdge" fromLane="2" toLane="2"/>

    <connection from="183920406#14" to="243119812#0" fromLane="0" toLane="0"/>
    <connection from="183920406#14" to="183920406#16" fromLane="0" toLane="0"/>
    <connection from="183920406#14" to="183920406#16" fromLane="1" toLane="1"/>
    <connection from="183920406#14" to="183920405#1" fromLane="2" toLane="2"/>

    <connection from="183920406#14-AddedOnRampEdge" to="183920406#14" fromLane="0" toLane="0"/>
    <connection from="183920406#14-AddedOnRampEdge" to="183920406#14" fromLane="1" toLane="1"/>
    <connection from="183920406#14-AddedOnRampEdge" to="183920406#14" fromLane="2" toLane="2"/>

    <connection from="183920406#16" to="183920406#17" fromLane="0" toLane="0"/>
    <connection from="183920406#16" to="183920406#17" fromLane="1" toLane="1"/>
    <connection from="183920406#16" to="183920406#17" fromLane="2" toLane="2"/>

    <connection from="183920406#17" to="183920406#18-AddedOnRampEdge" fromLane="0" toLane="0"/>
    <connection from="183920406#17" to="183920406#18-AddedOnRampEdge" fromLane="1" toLane="1"/>
    <connection from="183920406#17" to="183920406#18-AddedOnRampEdge" fromLane="2" toLane="2"/>

    <connection from="183920406#18" to="183920406#20" fromLane="0" toLane="0"/>
    <connection from="183920406#18" to="183920406#20" fromLane="1" toLane="1"/>
    <connection from="183920406#18" to="183920406#20" fromLane="2" toLane="2"/>
    <connection from="183920406#18" to="293326333#1" fromLane="2" toLane="2"/>

    <connection from="183920406#18-AddedOnRampEdge" to="183920406#18" fromLane="0" toLane="0"/>